
      MMMMMMM                                       MM      MMM     MM
    MMM     MMM    MM      M   MMMMMMMM             LM     DM M     ML     MM     MMMMMMMMM  MMMMMMMM  MMMMMMMM
   MM         MM   MMM     M   MM                    MM    MM M     M     MMMM        M      M         MM     NM
   MM         MM   MM M    M   MM                    MM    M  MM   MM    MM  MM       M      M         MM      M
   MM         MM   MM  M   M   MMMMMMMM               MN  MM   M   MM   MM    MM      M      MMMMMMM   MMMMMMMMM
   MM         MM   MM   M  M   MM         MMMMMMM     MM  M    MM MM    MMMMMMMM      M      M         MM   MM
   MM         MM   MM    M M   MM                     LM MM    NM MM   MM      MM     M      M         MM    MM
    MM       NM    MM     MM   MM                      M M      M M   MN        MM    M      M         MM     MM
     MMMMMMMMN     MM      M   MMMMMMMM                7MM      7MM  MN          MM   M      MMMMMMMM  MM      MM


 MODFLOW-OWHM v2.0.01  


                        MODFLOW
            ONE-WATER HYDROLOGIC-FLOW MODEL

    U.S. GEOLOGICAL SURVEY MODULAR FINITE-DIFFERENCE 
           CONJUNCTIVE USE SIMULATION PROGRAM

                     Version 2.0

 Release: 01          4/23/2020

 Includes:
          MODFLOW-2005 Version 1.12.0   02/03/2017
          MODFLOW-FMP  Version 4.00.0   04/23/2017
          MODFLOW-SWR  Version 1.04.0   09/15/2016
          MODFLOW-SWI  Version 2.00.0   07/22/2013
          MODFLOW-LGR  Version 2.00.0   09/19/2013
          MODFLOW-NWT  Version 1.2.0    03/01/2020
          MODFLOW-CFP  Version 1.09.57  09/12/2017


 OneWater Simulation Initiated at 


 LIST FILE: ./output/restest.lst
      UNIT: 7

OPENING PACKAGES

BAS6 PACKAGE OPENED.
BCF  PACKAGE OPENED.
GHB  PACKAGE OPENED.
SIP  PACKAGE OPENED.
OC   PACKAGE OPENED.
RES  PACKAGE OPENED.
DIS  PACKAGE OPENED.

NOTIFICATION: A FILE UNIT NUMBER WAS FOUND FOR EITHER THE LIST FILE OR A PACAKGE.
IT WILL BE USED EVEN THOUGH UNIT NUMBERS FOR THE LIST FILE AND PACKAGES ARE NOW OPTIONAL.
[IT IS RECOMMENDED TO STILL USE A UNIT NUMBER FOR DATA and DATA(BINARY) ]


 BAS -- BASIC PACKAGE, VERSION OWHM INPUT READ FROM UNIT     8
 
MODFLOW was compiled using uniform precision (Precision => Number of meaningful digits in numbers)
Precision of REAL and DOUBLE PRECISION variables: 15

 DISCRETIZATION INPUT DATA READ FROM UNIT   10

-- READING DIS PACKAGE INPUT --

# restest
# MODFLOW-2005 Example problem documented in:
#   Harbaugh, A.W., 2005, MODFLOW-2005, the U.S. Geological Survey modular ground-water model -- the Ground-Water Flow Process: U.S. Geological Survey Techniques and Methods 6-A16.
#   Harbaugh, A.W., Banta, E.R., Hill, M.C. and McDonald, M.G., 2000, MODFLOW-2000, The U.S. Geological Survey Modular Ground-Water Model - User Guide to Modularization Concepts and the Ground-Water Flow Process: U.S Geological Survey Open-File Report 2000-92, 121 p., https://doi.org/10.3133/ofr200092
#   Fenske, J.P., Leake, S.A., and Prudic, D.E., 1996, Documentation of a computer program (RES1) to simulate leakage from reservoirs using the modular finite-difference ground-water flow model (MODFLOW): U.S. Geological Survey Open-File Report 96-364, 51 p.
#
#      -Comments are preceded by a # sign
#
#-----------------------------------------------------------------------------------------------------------------------------------------------------



*** DIS COORDINATE SYSTEM NOT SEPECIFIED ***
DEFAULT VALUES APPLIED ARE 0° ROTATION
WITH THE ORIGIN (0,0) LOCATED AT THE MODEL'S LOWER LEFT CORNER




DIS COORDINATE SYSTEM SEPECIFIED WITH:
GRID ROTATION OF 0.0°
WITH THE ORIGIN LOCATED AT THE OUTER MOST CORNER OF MODEL CELL [12,1] WITH:
X-COORDINATE:0.0
Y-COORDINATE:0.0
    1 LAYERS        12 ROWS        12 COLUMNS
      3 STRESS PERIOD(S) IN SIMULATION
 MODEL TIME UNIT IS DAYS
 MODEL LENGTH UNIT IS UNDEFINED
  Confining bed flag for each layer:
   0

                     DELR =   100.000    

                     DELC =   100.000    

 TOP ELEVATION OF LAYER 1 =   100.000    

   MODEL LAYER BOTTOM EL. =  -500.000     FOR LAYER   1


 STRESS PERIOD     LENGTH       TIME STEPS     MULTIPLIER FOR DELT    SS FLAG  (OPTIONAL TIME STEP LENGTH)
 ---------------------------------------------------------------------------------------------------
        1         2.000000          2                  1.00000         TR
        2         2.000000          2                  1.00000         TR
        3         5.000000          5                  1.00000         TR

 TRANSIENT SIMULATION




-- READING BAS PACKAGE INPUT --

# restest
# MODFLOW-2005 Example problem documented in:
#   Harbaugh, A.W., 2005, MODFLOW-2005, the U.S. Geological Survey modular ground-water model -- the Ground-Water Flow Process: U.S. Geological Survey Techniques and Methods 6-A16.
#   Harbaugh, A.W., Banta, E.R., Hill, M.C. and McDonald, M.G., 2000, MODFLOW-2000, The U.S. Geological Survey Modular Ground-Water Model - User Guide to Modularization Concepts and the Ground-Water Flow Process: U.S Geological Survey Open-File Report 2000-92, 121 p., https://doi.org/10.3133/ofr200092
#   Fenske, J.P., Leake, S.A., and Prudic, D.E., 1996, Documentation of a computer program (RES1) to simulate leakage from reservoirs using the modular finite-difference ground-water flow model (MODFLOW): U.S. Geological Survey Open-File Report 96-364, 51 p.
#
# Input modified for MODFLOW-OWHM by including the BAS options:
#    NOFREE  BUDGETDB ./output/restest_VolumetricBudget.txt  CUMULATIVE_HEAD_CHANGE ./output/restest_CumHCHG.txt  PRINT_HEAD NPER ./output/restest_Head.txt
#
#-----------------------------------------------------------------------------------------------------------------------------------------------------
#
#Reservoir Package Example Problem
#June 25, 1996


 THE BAS PACKAGE NOW DEFAULTS TO FREE FORMAT.
 USE OPTION "NOFREE" TO DISABLE FREE FORMAT.



########################################################################################################

                           WARNING_MESSAGE

         THE FOLLOWING COMMENTS WERE PASSED TO THE WARNING ROUTINE

THE WARNING IS BELIEVED TO HAVE ORIGINATED FROM THE FOLLOWING FILE:
"examples\mf-2005\restest.ba6"

THE GUESSED LINE THAT THE WARNING OCCURED ON IS:
"NOFREE  BUDGETDB ./output/restest_VolumetricBudget.txt  CUMULATIVE_HEAD_CHANGE ./output/restest_CumHCHG.txt  PRINT_HEAD NPER ./output/restest_Head.txt"

THE DESRIPTION OF THE WARNING IS:

FOUND BAS PACKAGE OPTION KEYWORDS ALONG PACKAGE "OPTIONS LINE" (ie Data Set 1)

The BAS package options should be within an "OPTIONS BLOCK" rather than along the first line of input.

The BAS package will attempt to read the options line, but some advanced options may fail to load due to their complex input,
For example the option "SHIFT_STRT" uses ULOAD to read NLAY shift values, which would crash under certain ULOAD keyword combinations.

Also note that if any of the options specify a GENERIC_OUTPUT file, 
then there may be additional warnings about a BAS OPTION not being a recognized GENERIC_OUTPUT post-keyword.
These warnings can be ignored, since its a post-keyword warning pertaining to the GENERIC_OUTPUT file and 
the BAS OPTION is still processed by the BAS package.

It is recommended for new models to use "BEGIN OPTIONS" and then have one option per line and
end the options block with the word "END" in place of single line of options.

For example:

BEGIN OPTIONS

  START_DATE  4/23/1901
  SHOWPROGRESS
  NOCBC
  BUDGETDB ./output/VolumetricBudget.txt
  PAUSE

END OPTIONS

             - Note that "OPTIONS BLOCK" maybe empty or entirely not present,
               nor is it required to specify an "OPTIONS LINE"

             - DO NOT specify both an "OPTIONS BLOCK" and "OPTIONS LINE" at the same time.

########################################################################################################



 NOW READING BAS OPTIONS

 FOUND OPTION: NOFREE
     THE FREE FORMAT OPTION IS DISABLED (INPUT USES FIXED FORMATTED READ)

 FOUND OPTION: BUDGETDB


########################################################################################################

                           WARNING_MESSAGE

         THE FOLLOWING COMMENTS WERE PASSED TO THE WARNING ROUTINE

THE WARNING IS BELIEVED TO HAVE ORIGINATED FROM THE FOLLOWING FILE:
"examples\mf-2005\restest.ba6"

THE GUESSED LINE THAT THE WARNING OCCURED ON IS:
"NOFREE  BUDGETDB ./output/restest_VolumetricBudget.txt  CUMULATIVE_HEAD_CHANGE ./output/restest_CumHCHG.txt  PRINT_HEAD NPER ./output/restest_Head.txt"

THE DESRIPTION OF THE WARNING IS:

...CHECK_FOR_POST_KEY WARNINGS...
 THE FOLLOWING MESSAGES WERE PASSED WHILE CHECKING FOR ANY ADDITIONAL KEYWORDS ON LOADED LINE.


FAILED TO IDENTIFY THE FOLLOWING POST-KEYWORD: 

"CUMULATIVE_HEAD_CHANGE"

IT WILL BE IGNORED AND NO FURTHER KEYWORDS WILL BE CHECKED/INCLUDED TO THE RIGHT OF IT.
TO SUPRESS THIS WARNING PLEASE PLACE A "#" SYMBOL TO THE LEFT OF THE WORD TO INDICATE EVERYTHING TO THE RIGHT OF THE # IS A COMMENT

########################################################################################################



 FOUND OPTION: CUMULATIVE_HEAD_CHANGE
    THIS OPTION IS ONLY USEFUL FOR MODEL RESULT COMPARISON WITH DIFFERENT CODE COMPARISONS.



########################################################################################################

                           WARNING_MESSAGE

         THE FOLLOWING COMMENTS WERE PASSED TO THE WARNING ROUTINE

THE WARNING IS BELIEVED TO HAVE ORIGINATED FROM THE FOLLOWING FILE:
"examples\mf-2005\restest.ba6"

THE GUESSED LINE THAT THE WARNING OCCURED ON IS:
"NOFREE  BUDGETDB ./output/restest_VolumetricBudget.txt  CUMULATIVE_HEAD_CHANGE ./output/restest_CumHCHG.txt  PRINT_HEAD NPER ./output/restest_Head.txt"

THE DESRIPTION OF THE WARNING IS:

...CHECK_FOR_POST_KEY WARNINGS...
 THE FOLLOWING MESSAGES WERE PASSED WHILE CHECKING FOR ANY ADDITIONAL KEYWORDS ON LOADED LINE.


FAILED TO IDENTIFY THE FOLLOWING POST-KEYWORD: 

"PRINT_HEAD"

IT WILL BE IGNORED AND NO FURTHER KEYWORDS WILL BE CHECKED/INCLUDED TO THE RIGHT OF IT.
TO SUPRESS THIS WARNING PLEASE PLACE A "#" SYMBOL TO THE LEFT OF THE WORD TO INDICATE EVERYTHING TO THE RIGHT OF THE # IS A COMMENT

########################################################################################################



 FOUND OPTION: PRINT_HEAD    SP    TS   FILE
                              3     5   ./output/restest_Head.txt

 THE MAX STORAGE FOR PROPERTIES DEFINED BY PARAMETERS IS: 
 MAX STORAGE OF PARAMETERS (MXPAR)  IS       2000
 MAX STORAGE OF INSTANCES  (MXINST) IS      50000
 MAX STORAGE OF CLUSTERS   (MXCLST) IS    2000000




                     BOUNDARY ARRAY FOR LAYER   1
 READING ON UNIT    8 WITH FORMAT: (20I4)              

        1   2   3   4   5   6   7   8   9  10  11  12
 ....................................................
   1    1   1   1   1   1   1   1   1   1   1   1   1
   2    1   1   1   1   1   1   1   1   1   1   1   1
   3    1   1   1   1   1   1   1   1   1   1   1   1
   4    1   1   1   1   1   1   1   1   1   1   1   1
   5    1   1   1   1   1   1   1   1   1   1   1   1
   6    1   1   1   1   1   1   1   1   1   1   1   1
   7    1   1   1   1   1   1   1   1   1   1   1   1
   8    1   1   1   1   1   1   1   1   1   1   1   1
   9    1   1   1   1   1   1   1   1   1   1   1   1
  10    1   1   1   1   1   1   1   1   1   1   1   1
  11    1   1   1   1   1   1   1   1   1   1   1   1
  12    1   1   1   1   1   1   1   1   1   1   1   1

 AQUIFER HEAD WILL BE SET TO 999.0 AT ALL NO-FLOW NODES (IBOUND=0).


             INITIAL HEAD =   0.00000     FOR LAYER   1

-- READING OC PACKAGE INPUT --

# restest
# MODFLOW-2005 Example problem documented in:
#   Harbaugh, A.W., 2005, MODFLOW-2005, the U.S. Geological Survey modular ground-water model -- the Ground-Water Flow Process: U.S. Geological Survey Techniques and Methods 6-A16.
#   Harbaugh, A.W., Banta, E.R., Hill, M.C. and McDonald, M.G., 2000, MODFLOW-2000, The U.S. Geological Survey Modular Ground-Water Model - User Guide to Modularization Concepts and the Ground-Water Flow Process: U.S Geological Survey Open-File Report 2000-92, 121 p., https://doi.org/10.3133/ofr200092
#   Fenske, J.P., Leake, S.A., and Prudic, D.E., 1996, Documentation of a computer program (RES1) to simulate leakage from reservoirs using the modular finite-difference ground-water flow model (MODFLOW): U.S. Geological Survey Open-File Report 96-364, 51 p.
#
#      -Comments are preceded by a # sign
#
#-----------------------------------------------------------------------------------------------------------------------------------------------------



 OUTPUT CONTROL IS SPECIFIED EVERY TIME STEP
 HEAD PRINT FORMAT CODE IS   4    DRAWDOWN PRINT FORMAT CODE IS   4
 HEADS WILL BE SAVED ON UNIT    0    DRAWDOWNS WILL BE SAVED ON UNIT    0

 BCF -- BLOCK-CENTERED FLOW PACKAGE, VERSION 7, 5/2/2005
         INPUT READ FROM UNIT 11

-- READING BCF PACKAGE INPUT --

# restest
# MODFLOW-2005 Example problem documented in:
#   Harbaugh, A.W., 2005, MODFLOW-2005, the U.S. Geological Survey modular ground-water model -- the Ground-Water Flow Process: U.S. Geological Survey Techniques and Methods 6-A16.
#   Harbaugh, A.W., Banta, E.R., Hill, M.C. and McDonald, M.G., 2000, MODFLOW-2000, The U.S. Geological Survey Modular Ground-Water Model - User Guide to Modularization Concepts and the Ground-Water Flow Process: U.S Geological Survey Open-File Report 2000-92, 121 p., https://doi.org/10.3133/ofr200092
#   Fenske, J.P., Leake, S.A., and Prudic, D.E., 1996, Documentation of a computer program (RES1) to simulate leakage from reservoirs using the modular finite-difference ground-water flow model (MODFLOW): U.S. Geological Survey Open-File Report 96-364, 51 p.
#
#      -Comments are preceded by a # sign
#
#-----------------------------------------------------------------------------------------------------------------------------------------------------


 TRANSIENT SIMULATION
 HEAD AT CELLS THAT CONVERT TO DRY=   0.0000    
 WETTING CAPABILITY IS NOT ACTIVE
      LAYER  LAYER-TYPE CODE     INTERBLOCK T
      --------------------------------------------
         1            0          0 -- HARMONIC    

 COLUMN TO ROW ANISOTROPY =   1.00000    

     PRIMARY STORAGE COEF =  0.200000     FOR LAYER   1

     TRANSMIS. ALONG ROWS =   10000.0     FOR LAYER   1

 GHB -- GENERAL-HEAD BOUNDARY PACKAGE, VERSION OWHM
         INPUT READ FROM UNIT   17

-- READING GHB PACKAGE INPUT --

# restest
# MODFLOW-2005 Example problem documented in:
#   Harbaugh, A.W., 2005, MODFLOW-2005, the U.S. Geological Survey modular ground-water model -- the Ground-Water Flow Process: U.S. Geological Survey Techniques and Methods 6-A16.
#   Harbaugh, A.W., Banta, E.R., Hill, M.C. and McDonald, M.G., 2000, MODFLOW-2000, The U.S. Geological Survey Modular Ground-Water Model - User Guide to Modularization Concepts and the Ground-Water Flow Process: U.S Geological Survey Open-File Report 2000-92, 121 p., https://doi.org/10.3133/ofr200092
#   Fenske, J.P., Leake, S.A., and Prudic, D.E., 1996, Documentation of a computer program (RES1) to simulate leakage from reservoirs using the modular finite-difference ground-water flow model (MODFLOW): U.S. Geological Survey Open-File Report 96-364, 51 p.
#
#-----------------------------------------------------------------------------------------------------------------------------------------------------


 No named parameters

 NO TABFILE SPECIFIED FOR PACKAGE GHB  


 NO LINEFEEDS ARE SPECIFIED FOR PACKAGE GHB  

 MAXIMUM OF     24 ACTIVE GHB CELLS AT ONE TIME


     0 GHB parameters

RES7 -- RESERVOIR PACKAGE, VERSION OWHM INPUT READ FROM UNIT 27

-- READING RES PACKAGE INPUT --

# restest
# MODFLOW-2005 Example problem documented in:
#   Harbaugh, A.W., 2005, MODFLOW-2005, the U.S. Geological Survey modular ground-water model -- the Ground-Water Flow Process: U.S. Geological Survey Techniques and Methods 6-A16.
#   Harbaugh, A.W., Banta, E.R., Hill, M.C. and McDonald, M.G., 2000, MODFLOW-2000, The U.S. Geological Survey Modular Ground-Water Model - User Guide to Modularization Concepts and the Ground-Water Flow Process: U.S Geological Survey Open-File Report 2000-92, 121 p., https://doi.org/10.3133/ofr200092
#   Fenske, J.P., Leake, S.A., and Prudic, D.E., 1996, Documentation of a computer program (RES1) to simulate leakage from reservoirs using the modular finite-difference ground-water flow model (MODFLOW): U.S. Geological Survey Open-File Report 96-364, 51 p.
#
#      -Comments are preceded by a # sign
#
#-----------------------------------------------------------------------------------------------------------------------------------------------------


 TOTAL NUMBER OF RESERVOIRS:   1
 OPTION 1 -- RESERVOIR CONNECTED TO TOP LAYER
 RESERVOIR HEADS, AREAS, AND VOLUMES WILL BE PRINTED EACH TIME STEP
   15 points will be used in constructing table of reservoir areas and volumes.



                 RESERVOIR LOCATION FOR LAYER   1
 READING ON UNIT   27 WITH FORMAT: (12I2)              

        1   2   3   4   5   6   7   8   9  10  11  12
 ....................................................
   1    0   0   0   0   0   0   0   0   0   0   0   0
   2    0   0   0   0   0   0   0   0   0   0   0   0
   3    0   0   0   0   1   1   1   1   1   1   0   0
   4    0   0   0   1   1   1   1   1   1   1   0   0
   5    0   0   0   1   1   1   1   1   1   1   0   0
   6    0   0   0   1   1   1   1   1   1   1   1   0
   7    0   0   0   1   1   1   1   1   1   1   0   0
   8    0   0   0   1   1   1   1   1   1   1   0   0
   9    0   0   0   0   1   1   1   1   1   1   0   0
  10    0   0   0   0   0   0   0   0   0   0   0   0
  11    0   0   0   0   0   0   0   0   0   0   0   0
  12    0   0   0   0   0   0   0   0   0   0   0   0
 NUMBER OF CELLS IN RESERVOIR  1:    48



           RESERVOIR LAND SURF ELEV FOR LAYER   1
 READING ON UNIT   27 WITH FORMAT: (12F4.0)            

         1     2     3     4     5     6     7     8     9    10    11    12
 ...........................................................................
   1    0.0   0.0   0.0   0.0   0.0   0.0   0.0   0.0   0.0   0.0   0.0   0.0
   2    0.0   0.0   0.0   0.0   0.0   0.0   0.0   0.0   0.0   0.0   0.0   0.0
   3    0.0   0.0   0.0   0.0   6.0   7.0   8.0   9.0  10.0  10.0   0.0   0.0
   4    0.0   0.0   0.0   6.0   6.0   7.0   8.0   9.0  10.0  10.0   0.0   0.0
   5    0.0   0.0   0.0   6.0   6.0   7.0   8.0   9.0  10.0  10.0   0.0   0.0
   6    0.0   0.0   0.0   6.0   6.0   7.0   8.0   9.0  10.0  10.0  21.0   0.0
   7    0.0   0.0   0.0   6.0   6.0   7.0   8.0   9.0  10.0  10.0   0.0   0.0
   8    0.0   0.0   0.0   6.0   6.0   7.0   8.0   9.0  10.0  10.0   0.0   0.0
   9    0.0   0.0   0.0   0.0   6.0   7.0   8.0   9.0  10.0  10.0   0.0   0.0
  10    0.0   0.0   0.0   0.0   0.0   0.0   0.0   0.0   0.0   0.0   0.0   0.0
  11    0.0   0.0   0.0   0.0   0.0   0.0   0.0   0.0   0.0   0.0   0.0   0.0
  12    0.0   0.0   0.0   0.0   0.0   0.0   0.0   0.0   0.0   0.0   0.0   0.0

   RES. BED VERT HYD COND =   1.00000     FOR LAYER   1

  RESERVOIR BED THICKNESS =   2.00000     FOR LAYER   1
 STAGE-VOLUME TABLE FOR RESERVOIR 1
      STAGE       VOLUME         AREA
   ------------------------------------
   6.0000               0.0           0.0
   7.0000       0.12000E+06   0.12000E+06
   8.0000       0.31000E+06   0.19000E+06
   9.0000       0.57000E+06   0.26000E+06
   10.000       0.90000E+06   0.33000E+06
   11.000       0.13700E+07   0.47000E+06
   12.000       0.18400E+07   0.47000E+06
   13.000       0.23100E+07   0.47000E+06
   14.000       0.27800E+07   0.47000E+06
   15.000       0.32500E+07   0.47000E+06
   16.000       0.37200E+07   0.47000E+06
   17.000       0.41900E+07   0.47000E+06
   18.000       0.46600E+07   0.47000E+06
   19.000       0.51300E+07   0.47000E+06
   20.000       0.56000E+07   0.47000E+06
   21.000       0.60700E+07   0.47000E+06
  

 SIP -- STRONGLY-IMPLICIT PROCEDURE SOLUTION PACKAGE
                    VERSION OWHM INPUT READ FROM UNIT   19

-- READING SIP PACKAGE INPUT --

# restest
# MODFLOW-2005 Example problem documented in:
#   Harbaugh, A.W., 2005, MODFLOW-2005, the U.S. Geological Survey modular ground-water model -- the Ground-Water Flow Process: U.S. Geological Survey Techniques and Methods 6-A16.
#   Harbaugh, A.W., Banta, E.R., Hill, M.C. and McDonald, M.G., 2000, MODFLOW-2000, The U.S. Geological Survey Modular Ground-Water Model - User Guide to Modularization Concepts and the Ground-Water Flow Process: U.S Geological Survey Open-File Report 2000-92, 121 p., https://doi.org/10.3133/ofr200092
#   Fenske, J.P., Leake, S.A., and Prudic, D.E., 1996, Documentation of a computer program (RES1) to simulate leakage from reservoirs using the modular finite-difference ground-water flow model (MODFLOW): U.S. Geological Survey Open-File Report 96-364, 51 p.
#
#-----------------------------------------------------------------------------------------------------------------------------------------------------


 MAXIMUM OF  50 ITERATIONS ALLOWED FOR CLOSURE
  5 ITERATION PARAMETERS

          SOLUTION BY THE STRONGLY IMPLICIT PROCEDURE
          -------------------------------------------
 MAXIMUM ITERATIONS ALLOWED FOR CLOSURE =       50
                 ACCELERATION PARAMETER =     1.0000    
      HEAD CHANGE CRITERION FOR CLOSURE =    0.10000E-02
      SIP HEAD CHANGE PRINTOUT INTERVAL =      999

     5 ITERATION PARAMETERS CALCULATED FROM SPECIFIED WSEED = 0.00080000 :

  0.000000E+00 0.831821E+00 0.971716E+00 0.995243E+00 0.999200E+00


########################################################################################################

                           WARNING_MESSAGE

         THE FOLLOWING COMMENTS WERE PASSED TO THE WARNING ROUTINE

THE DESRIPTION OF THE WARNING IS:

DIS PACKAGE: THE GROUND SURFACE ELEVATION WAS NOT SPECIFIED WITH THE KEYWORD "SURFACE_ELEVATION"

BEFORE LOADING THE "TOP" ARRAY FOR LAYER 1
NOR WAS IT DEFINED WITH ANOTHER PACKAGE   (e.g. FMPs GLOBAL DIMENSION KEYWORD "SURFACE_ELEVATION")

OneWater WILL SET THE GROUND SURFACE ELEVATION (GSE)
TO THE TOP ELEVATION OF THE UPPER MOST ACTIVE CELL OR THE DIS TOP OF LAY1.

NOTE THAT SFR DOES USE GSE FOR ALL DIVERSION SEGMENTS
   WHEN "IRDFLG" IS SET TO 2 or -2.

########################################################################################################



1
                            STRESS PERIOD NO.      1, LENGTH =   2.000000    
                            -----------------------------------------------

                              NUMBER OF TIME STEPS =     2

                               MULTIPLIER FOR DELT =     1.000

                            INITIAL TIME STEP SIZE =   1.000000    

PARAMETERS HAVE BEEN USED IN PACKAGES

THE CURRENT STORAGE FOR PARAMETERS IS: 
No. PARAMETER=         0 WITH MAX STORAGE (MXPAR)  OF      2000
No. CLUSTERS =         0 WITH MAX STORAGE (MXCLST) OF   2000000
No. INSTANCES=         0 WITH MAX STORAGE (MXINST) OF     50000

YOU CAN INCREASE/DECREASE STORAGE WITH BAS OPTION:
MAXPARAM  MXPAR  MXCLST MXINST

FYI, YOU CAN REDUCE RAM USUAGE WITH BAS OPTION
(NOTE THE THREE NUMBERS ARE A MINUMUM SIZE):
   MAXPARAM          1         1         1


 GHB PACKAGE STRESS PERIOD INFORMATION [BEFORE APPLICATION OF TABFILES]

 BOUND. NO. LAYER   ROW   COL     BHEAD      CONDUCTANCE         
 ----------------------------------------------------------------
      1      1      1      1   0.0000000       1000.0000    
      2      1      2      1   0.0000000       1000.0000    
      3      1      3      1   0.0000000       1000.0000    
      4      1      4      1   0.0000000       1000.0000    
      5      1      5      1   0.0000000       1000.0000    
      6      1      6      1   0.0000000       1000.0000    
      7      1      7      1   0.0000000       1000.0000    
      8      1      8      1   0.0000000       1000.0000    
      9      1      9      1   0.0000000       1000.0000    
     10      1     10      1   0.0000000       1000.0000    
     11      1     11      1   0.0000000       1000.0000    
     12      1     12      1   0.0000000       1000.0000    
     13      1      1     12   0.0000000       1000.0000    
     14      1      2     12   0.0000000       1000.0000    
     15      1      3     12   0.0000000       1000.0000    
     16      1      4     12   0.0000000       1000.0000    
     17      1      5     12   0.0000000       1000.0000    
     18      1      6     12   0.0000000       1000.0000    
     19      1      7     12   0.0000000       1000.0000    
     20      1      8     12   0.0000000       1000.0000    
     21      1      9     12   0.0000000       1000.0000    
     22      1     10     12   0.0000000       1000.0000    
     23      1     11     12   0.0000000       1000.0000    
     24      1     12     12   0.0000000       1000.0000    

     24 GHB CELLS

 RESERVOIR CONDITIONS FOR STRESS PERIOD   1, STEP   1 TIME   1.0000    
  RESERVOIR   HEAD         AREA        VOLUME
  ----------------------------------------------
       1     8.0000     0.19000E+06 0.31000E+06
 
 SOLVING FOR HEAD 

     8 ITERATIONS FOR TIME STEP   1 IN STRESS PERIOD    1

 HEAD/DRAWDOWN PRINTOUT FLAG = 0     TOTAL BUDGET PRINTOUT FLAG = 0
 CELL-BY-CELL FLOW TERM FLAG = 0

 OUTPUT FLAGS FOR EACH LAYER:
          HEAD    DRAWDOWN  HEAD  DRAWDOWN
 LAYER  PRINTOUT  PRINTOUT  SAVE    SAVE
 -----------------------------------------
    1       0         0       0       0

 RESERVOIR CONDITIONS FOR STRESS PERIOD   1, STEP   2 TIME   2.0000    
  RESERVOIR   HEAD         AREA        VOLUME
  ----------------------------------------------
       1     12.000     0.47000E+06 0.18400E+07
 
 SOLVING FOR HEAD 
     8 ITERATIONS FOR TIME STEP   2 IN STRESS PERIOD    1

 MAXIMUM HEAD CHANGE FOR EACH ITERATION:

    HEAD CHANGE   HEAD CHANGE   HEAD CHANGE   HEAD CHANGE   HEAD CHANGE
  LAYER,ROW,COL LAYER,ROW,COL LAYER,ROW,COL LAYER,ROW,COL LAYER,ROW,COL
 ----------------------------------------------------------------------
      3.773         3.154        0.9343        0.1868       -0.2571E-01
  (  1,  6,  7) (  1,  6,  8) (  1,  3,  9) (  1, 10,  9) (  1, 12,  7)
    -0.6576E-02   -0.4163E-02   -0.9969E-03
  (  1, 10,  9) (  1, 11, 10) (  1, 11, 11)


 HEAD/DRAWDOWN PRINTOUT FLAG = 1     TOTAL BUDGET PRINTOUT FLAG = 1
 CELL-BY-CELL FLOW TERM FLAG = 0

 OUTPUT FLAGS FOR EACH LAYER:
          HEAD    DRAWDOWN  HEAD  DRAWDOWN
 LAYER  PRINTOUT  PRINTOUT  SAVE    SAVE
 -----------------------------------------
    1       1         0       1       0
1
              HEAD IN LAYER   1 AT END OF TIME STEP   2 IN STRESS PERIOD    1
  ---------------------------------------------------------------------------

           1       2       3       4       5       6       7       8       9      10      11      12
 ...................................................................................................
   1     2.07    2.43    2.93    3.50    4.00    4.24    4.22    3.97    3.55    3.03    2.49    2.09
   2     2.20    2.63    3.26    4.05    4.80    5.13    5.10    4.79    4.26    3.58    2.80    2.28
   3     2.42    2.97    3.87    5.15    6.66    7.10    7.04    6.65    5.86    4.86    3.35    2.58
   4     2.66    3.34    4.57    6.65    7.71    8.04    7.94    7.54    6.72    5.56    3.77    2.85
   5     2.82    3.59    4.96    7.19    8.18    8.46    8.33    7.93    7.12    5.89    4.00    3.02
   6     2.86    3.65    5.07    7.33    8.30    8.57    8.43    8.02    7.22    5.97    4.06    3.06
   7     2.77    3.53    4.91    7.15    8.13    8.42    8.28    7.88    7.06    5.83    3.94    2.96
   8     2.54    3.21    4.44    6.53    7.60    7.93    7.82    7.42    6.57    5.41    3.64    2.74
   9     2.23    2.75    3.62    4.90    6.42    6.85    6.79    6.37    5.58    4.61    3.13    2.39
  10     1.91    2.29    2.86    3.59    4.30    4.60    4.56    4.28    3.79    3.16    2.45    1.98
  11     1.65    1.94    2.32    2.76    3.14    3.33    3.31    3.11    2.78    2.38    1.96    1.65
  12     1.52    1.75    2.05    2.37    2.63    2.76    2.74    2.58    2.33    2.02    1.72    1.48



  -------------------------------------------------------------------------------------
  VOLUMETRIC BUDGET FOR ENTIRE MODEL AT END OF TIME STEP    2 IN STRESS PERIOD      1
  -------------------------------------------------------------------------------------

     CUMULATIVE VOLUMES      L**3       RATES FOR THIS TIME STEP      L**3/T
     ------------------                 ------------------------

           IN:                                      IN:
           ---                                      ---
             STORAGE =           0.0000               STORAGE =           0.0000
       CONSTANT HEAD =           0.0000         CONSTANT HEAD =           0.0000
     HEAD DEP BOUNDS =           0.0000       HEAD DEP BOUNDS =           0.0000
     RESERV. LEAKAGE =     1351890.2367       RESERV. LEAKAGE =     1006890.2367

            TOTAL IN =     1351890.2367              TOTAL IN =     1006890.2367

          OUT:                                     OUT:
          ----                                     ----
             STORAGE =     1283286.2641               STORAGE =      950191.8386
       CONSTANT HEAD =           0.0000         CONSTANT HEAD =           0.0000
     HEAD DEP BOUNDS =       68620.8882       HEAD DEP BOUNDS =       56722.7419
     RESERV. LEAKAGE =           0.0000       RESERV. LEAKAGE =           0.0000

           TOTAL OUT =     1351907.1522             TOTAL OUT =     1006914.5805

            IN - OUT =         -16.9155              IN - OUT =         -24.3438

 PERCENT DISCREPANCY =          -0.00     PERCENT DISCREPANCY =          -0.00


          TIME SUMMARY AT END OF TIME STEP     2 IN STRESS PERIOD      1
                    SECONDS     MINUTES      HOURS       DAYS        YEARS
                    -----------------------------------------------------------
   TIME STEP LENGTH  86400.      1440.0      24.000      1.0000     2.73785E-03
 STRESS PERIOD TIME 1.72800E+05  2880.0      48.000      2.0000     5.47570E-03
         TOTAL TIME 1.72800E+05  2880.0      48.000      2.0000     5.47570E-03
 
1
                            STRESS PERIOD NO.      2, LENGTH =   2.000000    
                            -----------------------------------------------

                              NUMBER OF TIME STEPS =     2

                               MULTIPLIER FOR DELT =     1.000

                            INITIAL TIME STEP SIZE =   1.000000    

 REUSING NON-PARAMETER GHB CELLS FROM LAST STRESS PERIOD

     24 GHB CELLS

 RESERVOIR CONDITIONS FOR STRESS PERIOD   2, STEP   1 TIME   3.0000    
  RESERVOIR   HEAD         AREA        VOLUME
  ----------------------------------------------
       1     13.000     0.47000E+06 0.23100E+07
 
 SOLVING FOR HEAD 

     8 ITERATIONS FOR TIME STEP   1 IN STRESS PERIOD    2

 HEAD/DRAWDOWN PRINTOUT FLAG = 0     TOTAL BUDGET PRINTOUT FLAG = 0
 CELL-BY-CELL FLOW TERM FLAG = 0

 OUTPUT FLAGS FOR EACH LAYER:
          HEAD    DRAWDOWN  HEAD  DRAWDOWN
 LAYER  PRINTOUT  PRINTOUT  SAVE    SAVE
 -----------------------------------------
    1       0         0       0       0

 RESERVOIR CONDITIONS FOR STRESS PERIOD   2, STEP   2 TIME   4.0000    
  RESERVOIR   HEAD         AREA        VOLUME
  ----------------------------------------------
       1     14.000     0.47000E+06 0.27800E+07
 
 SOLVING FOR HEAD 
     8 ITERATIONS FOR TIME STEP   2 IN STRESS PERIOD    2

 MAXIMUM HEAD CHANGE FOR EACH ITERATION:

    HEAD CHANGE   HEAD CHANGE   HEAD CHANGE   HEAD CHANGE   HEAD CHANGE
  LAYER,ROW,COL LAYER,ROW,COL LAYER,ROW,COL LAYER,ROW,COL LAYER,ROW,COL
 ----------------------------------------------------------------------
      1.015        0.9675        0.4340        0.5330E-01   -0.5397E-02
  (  1,  9, 10) (  1,  1, 10) (  1, 11,  4) (  1,  2,  4) (  1,  2,  3)
     0.1282E-02    0.1056E-02    0.3297E-03
  (  1, 10,  3) (  1, 11,  3) (  1, 12,  1)


 HEAD/DRAWDOWN PRINTOUT FLAG = 1     TOTAL BUDGET PRINTOUT FLAG = 1
 CELL-BY-CELL FLOW TERM FLAG = 0

 OUTPUT FLAGS FOR EACH LAYER:
          HEAD    DRAWDOWN  HEAD  DRAWDOWN
 LAYER  PRINTOUT  PRINTOUT  SAVE    SAVE
 -----------------------------------------
    1       1         0       1       0
1
              HEAD IN LAYER   1 AT END OF TIME STEP   2 IN STRESS PERIOD    2
  ---------------------------------------------------------------------------

           1       2       3       4       5       6       7       8       9      10      11      12
 ...................................................................................................
   1     5.23    5.92    6.75    7.63    8.42    8.94    9.15    9.06    8.68    8.03    7.21    6.42
   2     5.37    6.11    7.05    8.10    9.07    9.65    9.87    9.78    9.38    8.64    7.59    6.68
   3     5.59    6.44    7.59    9.01   10.48   11.11   11.31   11.22   10.83    9.99    8.24    7.09
   4     5.83    6.79    8.20   10.19   11.32   11.86   12.03   11.93   11.52   10.61    8.72    7.44
   5     5.99    7.01    8.53   10.64   11.70   12.20   12.36   12.25   11.82   10.88    8.96    7.64
   6     6.00    7.05    8.60   10.73   11.78   12.27   12.43   12.31   11.88   10.93    9.00    7.67
   7     5.86    6.88    8.41   10.53   11.61   12.11   12.27   12.16   11.74   10.79    8.84    7.51
   8     5.57    6.51    7.91    9.95   11.10   11.64   11.82   11.72   11.31   10.38    8.43    7.15
   9     5.17    5.98    7.09    8.50   10.03   10.65   10.86   10.77   10.39    9.54    7.74    6.60
  10     4.77    5.44    6.29    7.27    8.19    8.73    8.93    8.85    8.48    7.79    6.79    5.95
  11     4.44    5.02    5.70    6.42    7.07    7.50    7.67    7.59    7.27    6.74    6.05    5.40
  12     4.27    4.79    5.39    6.00    6.53    6.90    7.05    6.97    6.69    6.23    5.67    5.11



  -------------------------------------------------------------------------------------
  VOLUMETRIC BUDGET FOR ENTIRE MODEL AT END OF TIME STEP    2 IN STRESS PERIOD      2
  -------------------------------------------------------------------------------------

     CUMULATIVE VOLUMES      L**3       RATES FOR THIS TIME STEP      L**3/T
     ------------------                 ------------------------

           IN:                                      IN:
           ---                                      ---
             STORAGE =           0.0000               STORAGE =           0.0000
       CONSTANT HEAD =           0.0000         CONSTANT HEAD =           0.0000
     HEAD DEP BOUNDS =           0.0000       HEAD DEP BOUNDS =           0.0000
     RESERV. LEAKAGE =     2770539.6596       RESERV. LEAKAGE =      640179.1572

            TOTAL IN =     2770539.6596              TOTAL IN =      640179.1572

          OUT:                                     OUT:
          ----                                     ----
             STORAGE =     2452312.9664               STORAGE =      495440.7411
       CONSTANT HEAD =           0.0000         CONSTANT HEAD =           0.0000
     HEAD DEP BOUNDS =      318248.2666       HEAD DEP BOUNDS =      144740.9336
     RESERV. LEAKAGE =           0.0000       RESERV. LEAKAGE =           0.0000

           TOTAL OUT =     2770561.2330             TOTAL OUT =      640181.6747

            IN - OUT =         -21.5735              IN - OUT =          -2.5175

 PERCENT DISCREPANCY =          -0.00     PERCENT DISCREPANCY =          -0.00


          TIME SUMMARY AT END OF TIME STEP     2 IN STRESS PERIOD      2
                    SECONDS     MINUTES      HOURS       DAYS        YEARS
                    -----------------------------------------------------------
   TIME STEP LENGTH  86400.      1440.0      24.000      1.0000     2.73785E-03
 STRESS PERIOD TIME 1.72800E+05  2880.0      48.000      2.0000     5.47570E-03
         TOTAL TIME 3.45600E+05  5760.0      96.000      4.0000     1.09514E-02
 
1
                            STRESS PERIOD NO.      3, LENGTH =   5.000000    
                            -----------------------------------------------

                              NUMBER OF TIME STEPS =     5

                               MULTIPLIER FOR DELT =     1.000

                            INITIAL TIME STEP SIZE =   1.000000    

 REUSING NON-PARAMETER GHB CELLS FROM LAST STRESS PERIOD

     24 GHB CELLS

 RESERVOIR CONDITIONS FOR STRESS PERIOD   3, STEP   1 TIME   5.0000    
  RESERVOIR   HEAD         AREA        VOLUME
  ----------------------------------------------
       1     12.000     0.47000E+06 0.18400E+07
 
 SOLVING FOR HEAD 

     6 ITERATIONS FOR TIME STEP   1 IN STRESS PERIOD    3

 HEAD/DRAWDOWN PRINTOUT FLAG = 0     TOTAL BUDGET PRINTOUT FLAG = 0
 CELL-BY-CELL FLOW TERM FLAG = 0

 OUTPUT FLAGS FOR EACH LAYER:
          HEAD    DRAWDOWN  HEAD  DRAWDOWN
 LAYER  PRINTOUT  PRINTOUT  SAVE    SAVE
 -----------------------------------------
    1       0         0       0       0

 RESERVOIR CONDITIONS FOR STRESS PERIOD   3, STEP   2 TIME   6.0000    
  RESERVOIR   HEAD         AREA        VOLUME
  ----------------------------------------------
       1     10.000     0.33000E+06 0.90000E+06
 
 SOLVING FOR HEAD 
     6 ITERATIONS FOR TIME STEP   2 IN STRESS PERIOD    3

 HEAD/DRAWDOWN PRINTOUT FLAG = 0     TOTAL BUDGET PRINTOUT FLAG = 0
 CELL-BY-CELL FLOW TERM FLAG = 0
 REUSING PREVIOUS VALUES OF IOFLG

 RESERVOIR CONDITIONS FOR STRESS PERIOD   3, STEP   3 TIME   7.0000    
  RESERVOIR   HEAD         AREA        VOLUME
  ----------------------------------------------
       1     8.0000     0.19000E+06 0.31000E+06
 
 SOLVING FOR HEAD 
     6 ITERATIONS FOR TIME STEP   3 IN STRESS PERIOD    3

 HEAD/DRAWDOWN PRINTOUT FLAG = 0     TOTAL BUDGET PRINTOUT FLAG = 0
 CELL-BY-CELL FLOW TERM FLAG = 0
 REUSING PREVIOUS VALUES OF IOFLG

 RESERVOIR CONDITIONS FOR STRESS PERIOD   3, STEP   4 TIME   8.0000    
  RESERVOIR   HEAD         AREA        VOLUME
  ----------------------------------------------
       1     6.0000      0.0000      0.0000    
 
 SOLVING FOR HEAD 
     6 ITERATIONS FOR TIME STEP   4 IN STRESS PERIOD    3

 HEAD/DRAWDOWN PRINTOUT FLAG = 0     TOTAL BUDGET PRINTOUT FLAG = 0
 CELL-BY-CELL FLOW TERM FLAG = 0
 REUSING PREVIOUS VALUES OF IOFLG

 RESERVOIR CONDITIONS FOR STRESS PERIOD   3, STEP   5 TIME   9.0000    
  RESERVOIR   HEAD         AREA        VOLUME
  ----------------------------------------------
       1     4.0000      0.0000      0.0000    
 
 SOLVING FOR HEAD 
     5 ITERATIONS FOR TIME STEP   5 IN STRESS PERIOD    3

 MAXIMUM HEAD CHANGE FOR EACH ITERATION:

    HEAD CHANGE   HEAD CHANGE   HEAD CHANGE   HEAD CHANGE   HEAD CHANGE
  LAYER,ROW,COL LAYER,ROW,COL LAYER,ROW,COL LAYER,ROW,COL LAYER,ROW,COL
 ----------------------------------------------------------------------
    -0.2055       -0.2675       -0.1547       -0.2046E-01    0.8916E-03
  (  1,  1,  8) (  1,  2,  9) (  1,  5,  8) (  1,  5,  7) (  1,  1, 11)


 HEAD/DRAWDOWN PRINTOUT FLAG = 1     TOTAL BUDGET PRINTOUT FLAG = 1
 CELL-BY-CELL FLOW TERM FLAG = 0

 OUTPUT FLAGS FOR EACH LAYER:
          HEAD    DRAWDOWN  HEAD  DRAWDOWN
 LAYER  PRINTOUT  PRINTOUT  SAVE    SAVE
 -----------------------------------------
    1       1         0       1       0
1
              HEAD IN LAYER   1 AT END OF TIME STEP   5 IN STRESS PERIOD    3
  ---------------------------------------------------------------------------

           1       2       3       4       5       6       7       8       9      10      11      12
 ...................................................................................................
   1     5.81    6.32    6.76    7.11    7.37    7.52    7.57    7.50    7.32    7.02    6.61    6.10
   2     5.81    6.32    6.75    7.10    7.36    7.52    7.57    7.50    7.32    7.02    6.61    6.10
   3     5.80    6.31    6.74    7.09    7.35    7.51    7.55    7.49    7.31    7.01    6.60    6.09
   4     5.79    6.30    6.73    7.08    7.33    7.49    7.54    7.47    7.29    6.99    6.59    6.07
   5     5.77    6.27    6.71    7.05    7.31    7.46    7.51    7.45    7.27    6.97    6.56    6.05
   6     5.74    6.24    6.67    7.02    7.27    7.43    7.47    7.41    7.23    6.94    6.53    6.02
   7     5.70    6.21    6.64    6.98    7.23    7.38    7.43    7.37    7.19    6.89    6.49    5.98
   8     5.66    6.17    6.59    6.93    7.18    7.33    7.38    7.31    7.13    6.84    6.44    5.94
   9     5.62    6.12    6.54    6.88    7.13    7.28    7.33    7.26    7.08    6.79    6.39    5.89
  10     5.59    6.08    6.50    6.84    7.09    7.24    7.28    7.21    7.03    6.74    6.35    5.85
  11     5.56    6.05    6.47    6.81    7.05    7.20    7.24    7.17    6.99    6.71    6.31    5.82
  12     5.54    6.03    6.45    6.79    7.03    7.18    7.22    7.15    6.97    6.69    6.29    5.80



  -------------------------------------------------------------------------------------
  VOLUMETRIC BUDGET FOR ENTIRE MODEL AT END OF TIME STEP    5 IN STRESS PERIOD      3
  -------------------------------------------------------------------------------------

     CUMULATIVE VOLUMES      L**3       RATES FOR THIS TIME STEP      L**3/T
     ------------------                 ------------------------

           IN:                                      IN:
           ---                                      ---
             STORAGE =      671650.2005               STORAGE =      140131.0942
       CONSTANT HEAD =           0.0000         CONSTANT HEAD =           0.0000
     HEAD DEP BOUNDS =           0.0000       HEAD DEP BOUNDS =           0.0000
     RESERV. LEAKAGE =     3088022.1882       RESERV. LEAKAGE =           0.0000

            TOTAL IN =     3759672.3887              TOTAL IN =      140131.0942

          OUT:                                     OUT:
          ----                                     ----
             STORAGE =     2625537.4555               STORAGE =           0.0000
       CONSTANT HEAD =           0.0000         CONSTANT HEAD =           0.0000
     HEAD DEP BOUNDS =     1098479.7414       HEAD DEP BOUNDS =      140112.0083
     RESERV. LEAKAGE =       35687.6692       RESERV. LEAKAGE =           0.0000

           TOTAL OUT =     3759704.8661             TOTAL OUT =      140112.0083

            IN - OUT =         -32.4774              IN - OUT =          19.0859

 PERCENT DISCREPANCY =          -0.00     PERCENT DISCREPANCY =           0.01


          TIME SUMMARY AT END OF TIME STEP     5 IN STRESS PERIOD      3
                    SECONDS     MINUTES      HOURS       DAYS        YEARS
                    -----------------------------------------------------------
   TIME STEP LENGTH  86400.      1440.0      24.000      1.0000     2.73785E-03
 STRESS PERIOD TIME 4.32000E+05  7200.0      120.00      5.0000     1.36893E-02
         TOTAL TIME 7.77600E+05  12960.      216.00      9.0000     2.46407E-02
 

 Final Remark:

   The solver successfully met the user supplied convergence criteria, HCLOSE and RCLOSE, for all 9 time steps.

   Please check the "VOLUMETRIC BUDGET FOR ENTIRE MODEL" to ensure that mass rate balance errors are acceptable for all time steps.

   The cumulative mass error for the entire simulation is 0.00 %




 Simulation finished at  


 Which had an elapsed run time of: 0.0 seconds


    OneWater Simulation Now Complete


