ðŸ’§ðŸ§™ðŸ’¦ðŸŒŠ  <-These symbols help text editors identify file as Unicode UTF8.
                    UTF8 is not necessary to view numerical results, but no UTF8 support can have artifacts where non-ascii symbols are used (such as the degree symbol).


MODFLOW-OWHM v2.2.0

      MMMMMMM                                       MM      MMM     MM
    MMM     MMM    MM      M   MMMMMMMM             LM     DM M     ML     MM     MMMMMMMMM  MMMMMMMM  MMMMMMMM
   MM         MM   MMM     M   MM                    MM    MM M     M     MMMM        M      M         MM     NM
   MM         MM   MM M    M   MM                    MM    M  MM   MM    MM  MM       M      M         MM      M
   MM         MM   MM  M   M   MMMMMMMM               MN  MM   M   MM   MM    MM      M      MMMMMMM   MMMMMMMMM
   MM         MM   MM   M  M   MM         MMMMMMM     MM  M    MM MM    MMMMMMMM      M      M         MM   MM
   MM         MM   MM    M M   MM                     LM MM    NM MM   MM      MM     M      M         MM    MM
    MM       NM    MM     MM   MM                      M M      M M   MN        MM    M      M         MM     MM
     MMMMMMMMN     MM      M   MMMMMMMM                7MM      7MM  MN          MM   M      MMMMMMMM  MM      MM


                        MODFLOW
            ONE-WATER HYDROLOGIC-FLOW MODEL

    U.S. Geological Survey Modular Finite-Difference
           Conjunctive Use Simulation Program

                      Version 2.2

 Release: 0

 Includes the following base versions with enhancements:

          MODFLOW-2005 Version 1.12
          MODFLOW-FMP  Version 4.1
          MODFLOW-SWR  Version 1.04
          MODFLOW-SWI  Version 2.0
          MODFLOW-LGR  Version 2.0
          MODFLOW-NWT  Version 1.2
          MODFLOW-CFP  Version 1.09.57
                  SWO  Version 1.0

------------------------------------------------------------------------------------
USGS Software Disclaimer:                                                          |
                                                                                   |
   No warranty, expressed or implied, is made by the USGS or the U.S. Government   |
   as to the functionality of the software and related material nor shall the      |
   fact of release constitute any such warranty.                                   |
                                                                                   |
   The software is provided on the condition that neither the USGS nor             |
   the U.S. Government shall be held liable for any damages resulting from the     |
   authorized or unauthorized use of the software.                                 |
                                                                                   |
   Newer versions may be present at the official code and download repository:     |
      https://code.usgs.gov/modflow/mf-owhm                                        |
                                                                                   |
------------------------------------------------------------------------------------

âˆ™âˆ™âˆ™âˆ™âˆ™âˆ™âˆ™âˆ™âˆ™âˆ™âˆ™âˆ™âˆ™âˆ™âˆ™âˆ™âˆ™âˆ™âˆ™âˆ™âˆ™âˆ™âˆ™âˆ™âˆ™âˆ™âˆ™âˆ™âˆ™âˆ™âˆ™âˆ™âˆ™âˆ™âˆ™âˆ™âˆ™âˆ™âˆ™âˆ™âˆ™âˆ™âˆ™âˆ™âˆ™âˆ™âˆ™âˆ™âˆ™âˆ™âˆ™âˆ™âˆ™âˆ™âˆ™âˆ™âˆ™âˆ™âˆ™âˆ™âˆ™âˆ™
    OneWater Simulation Initiated at  
âˆ™âˆ™âˆ™âˆ™âˆ™âˆ™âˆ™âˆ™âˆ™âˆ™âˆ™âˆ™âˆ™âˆ™âˆ™âˆ™âˆ™âˆ™âˆ™âˆ™âˆ™âˆ™âˆ™âˆ™âˆ™âˆ™âˆ™âˆ™âˆ™âˆ™âˆ™âˆ™âˆ™âˆ™âˆ™âˆ™âˆ™âˆ™âˆ™âˆ™âˆ™âˆ™âˆ™âˆ™âˆ™âˆ™âˆ™âˆ™âˆ™âˆ™âˆ™âˆ™âˆ™âˆ™âˆ™âˆ™âˆ™âˆ™âˆ™âˆ™âˆ™âˆ™


 LIST FILE: ./output/swtex4.lst
      UNIT: 92

OPENING DATA FILES [DATA AND DATA(BINARY)]

OPENED DATA FILE ON UNIT     34 WITH FILENAME OF: ./output/swtex4.bud
OPENED DATA FILE ON UNIT     35 WITH FILENAME OF: ./output/swtex4.hed
OPENED DATA FILE ON UNIT     71 WITH FILENAME OF: ./output/swtex4.cmp
OPENED DATA FILE ON UNIT     72 WITH FILENAME OF: ./output/swtex4.srs
OPENED DATA FILE ON UNIT     76 WITH FILENAME OF: ./output/swtex4.gst
OPENED DATA FILE ON UNIT     70 WITH FILENAME OF: ./output/swtex4.sb

OPENING PACKAGES

BAS6 PACKAGE OPENED.
DIS  PACKAGE OPENED.
LPF  PACKAGE OPENED.
WEL  PACKAGE OPENED.
SIP  PACKAGE OPENED.
OC   PACKAGE OPENED.
SWT  PACKAGE OPENED.

NOTIFICATION: A FILE UNIT NUMBER WAS FOUND FOR EITHER THE LIST FILE OR A PACAKGE.
IT WILL BE USED EVEN THOUGH UNIT NUMBERS FOR THE LIST FILE AND PACKAGES ARE NOW OPTIONAL.
[IT IS RECOMMENDED TO STILL USE A UNIT NUMBER FOR DATA and DATA(BINARY) ]


 BAS -- BASIC PACKAGE, VERSION OWHM INPUT READ FROM UNIT     4
 
MODFLOW was compiled using uniform precision (Precision => Number of meaningful digits in numbers)
Precision of REAL and DOUBLE PRECISION variables: 15

 DISCRETIZATION INPUT DATA READ FROM UNIT   10

-- READING DIS PACKAGE INPUT --

# swtex4
# MODFLOW-2005 Example problem documented in:
#   Harbaugh, A.W., 2005, MODFLOW-2005, the U.S. Geological Survey modular ground-water model -- the Ground-Water Flow Process: U.S. Geological Survey Techniques and Methods 6-A16.
#   Harbaugh, A.W., Banta, E.R., Hill, M.C. and McDonald, M.G., 2000, MODFLOW-2000, The U.S. Geological Survey Modular Ground-Water Model - User Guide to Modularization Concepts and the Ground-Water Flow Process: U.S Geological Survey Open-File Report 2000-92, 121 p., https://doi.org/10.3133/ofr200092
#   Leake, S.A., and Galloway, D.L., 2007, MODFLOW ground-water model -- User guide to the Subsidence and Aquifer-System Compaction Package (SUB-WT) for Water-Table Aquifers: U.S. Geological Survey Techniques and Methods, Book 6, Chap. A23, 42 p.
#
#      -Comments are preceded by a # sign
#
#-----------------------------------------------------------------------------------------------------------------------------------------------------



*** DIS COORDINATE SYSTEM NOT SEPECIFIED ***
DEFAULT VALUES APPLIED ARE 0Â° ROTATION
WITH THE ORIGIN (0,0) LOCATED AT THE MODEL'S LOWER LEFT CORNER




DIS COORDINATE SYSTEM SEPECIFIED WITH:
GRID ROTATION OF 0.0Â°
WITH THE ORIGIN LOCATED AT THE OUTER MOST CORNER OF MODEL CELL [20,1] WITH:
X-COORDINATE:0.0
Y-COORDINATE:0.0
    4 LAYERS        20 ROWS        15 COLUMNS
      3 STRESS PERIOD(S) IN SIMULATION
 MODEL TIME UNIT IS DAYS
 MODEL LENGTH UNIT IS METERS
  Confining bed flag for each layer:
   0   0   0   0

                     DELR =   2000.00    

                     DELC =   2000.00    

 TOP ELEVATION OF LAYER 1 =   150.000    

   MODEL LAYER BOTTOM EL. =   50.0000     FOR LAYER   1

   MODEL LAYER BOTTOM EL. =  -100.000     FOR LAYER   2

   MODEL LAYER BOTTOM EL. =  -150.000     FOR LAYER   3

   MODEL LAYER BOTTOM EL. =  -350.000     FOR LAYER   4


 STRESS PERIOD     LENGTH       TIME STEPS     MULTIPLIER FOR DELT    SS FLAG  (OPTIONAL TIME STEP LENGTH)
 ---------------------------------------------------------------------------------------------------
        1         1.000000          1                  1.00000         SS
        2         21915.00         60                  1.00000         TR
        3         21915.00         60                  1.00000         TR

 COMBINED STEADY-STATE AND TRANSIENT SIMULATION




-- READING BAS PACKAGE INPUT --

# swtex4
# MODFLOW-2005 Example problem documented in:
#   Harbaugh, A.W., 2005, MODFLOW-2005, the U.S. Geological Survey modular ground-water model -- the Ground-Water Flow Process: U.S. Geological Survey Techniques and Methods 6-A16.
#   Harbaugh, A.W., Banta, E.R., Hill, M.C. and McDonald, M.G., 2000, MODFLOW-2000, The U.S. Geological Survey Modular Ground-Water Model - User Guide to Modularization Concepts and the Ground-Water Flow Process: U.S Geological Survey Open-File Report 2000-92, 121 p., https://doi.org/10.3133/ofr200092
#   Niswonger, R.G., Prudic, D.E., and Regan, R.S., 2006, Documentation of the Unsaturated-Zone Flow (UZF1) Package for modeling unsaturated flow between the land surface and the water table with MODFLOW-2005: U.S. Geological Techniques and Methods Book 6, Chapter A19, 62 p.
#
# Input modified for MODFLOW-OWHM by including the BAS options:
#    BUDGETDB ./output/swtex4_VolumetricBudget.txt  CUMULATIVE_HEAD_CHANGE ./output/swtex4_CumHCHG.txt  PRINT_HEAD NPER ./output/swtex4_Head.txt
#
#-----------------------------------------------------------------------------------------------------------------------------------------------------
#
# Test simulation 1A for the SWT Package in MODFLOW-2000
#


 THE BAS PACKAGE NOW DEFAULTS TO FREE FORMAT.
 USE OPTION "NOFREE" TO DISABLE FREE FORMAT.



########################################################################################################

                           WARNING_MESSAGE

         THE FOLLOWING COMMENTS WERE PASSED TO THE WARNING ROUTINE

THE WARNING IS BELIEVED TO HAVE ORIGINATED FROM THE FOLLOWING FILE:
"examples\mf-2005\swtex4.ba6"

THE GUESSED LINE THAT THE WARNING OCCURED ON IS:
"FREE  BUDGETDB ./output/swtex4_VolumetricBudget.txt  CUMULATIVE_HEAD_CHANGE ./output/swtex4_CumHCHG.txt  PRINT_HEAD NPER ./output/swtex4_Head.txt"

THE DESCRIPTION OF THE WARNING IS:

FOUND BAS PACKAGE OPTION KEYWORDS ALONG PACKAGE "OPTIONS LINE" (ie Data Set 1)

The BAS package options should be within an "OPTIONS BLOCK" rather than along the first line of input.

The BAS package will attempt to read the options line, but some advanced options may fail to load due to their complex input,
For example the option "SHIFT_STRT" uses ULOAD to read NLAY shift values, which would crash under certain ULOAD keyword combinations.

Also note that if any of the options specify a GENERIC_OUTPUT file, 
then there may be additional warnings about a BAS OPTION not being a recognized GENERIC_OUTPUT post-keyword.
These warnings can be ignored, since its a post-keyword warning pertaining to the GENERIC_OUTPUT file and 
the BAS OPTION is still processed by the BAS package.

It is recommended for new models to use "BEGIN OPTIONS" and then have one option per line and
end the options block with the word "END" in place of single line of options.

For example:

BEGIN OPTIONS

  START_DATE  4/23/1901
  SHOWPROGRESS
  NOCBC
  BUDGETDB ./output/VolumetricBudget.txt
  PAUSE

END OPTIONS

             - Note that "OPTIONS BLOCK" maybe empty or entirely not present,
               nor is it required to specify an "OPTIONS LINE"

             - DO NOT specify both an "OPTIONS BLOCK" and "OPTIONS LINE" at the same time.

########################################################################################################



 NOW READING BAS OPTIONS

 Found Option: FREE
                 THE FREE FORMAT OPTION HAS BEEN SELECTED
                    -NOTE THIS NOW IS THE DEFAULT AND NOT NECESSARY.

 Found Option: BUDGETDB


########################################################################################################

                           WARNING_MESSAGE

         THE FOLLOWING COMMENTS WERE PASSED TO THE WARNING ROUTINE

THE WARNING IS BELIEVED TO HAVE ORIGINATED FROM THE FOLLOWING FILE:
"examples\mf-2005\swtex4.ba6"

THE GUESSED LINE THAT THE WARNING OCCURED ON IS:
"FREE  BUDGETDB ./output/swtex4_VolumetricBudget.txt  CUMULATIVE_HEAD_CHANGE ./output/swtex4_CumHCHG.txt  PRINT_HEAD NPER ./output/swtex4_Head.txt"

THE DESCRIPTION OF THE WARNING IS:

...CHECK_FOR_POST_KEY WARNINGS...
 THE FOLLOWING MESSAGES WERE PASSED WHILE CHECKING FOR ANY ADDITIONAL KEYWORDS ON LOADED LINE.


FAILED TO IDENTIFY THE FOLLOWING POST-KEYWORD: 

"CUMULATIVE_HEAD_CHANGE"

IT WILL BE IGNORED AND NO FURTHER KEYWORDS WILL BE CHECKED/INCLUDED TO THE RIGHT OF IT.
TO SUPRESS THIS WARNING PLEASE PLACE A "#" SYMBOL TO THE LEFT OF THE WORD TO INDICATE EVERYTHING TO THE RIGHT OF THE # IS A COMMENT

########################################################################################################




 Found Option: CUMULATIVE_HEAD_CHANGE
                 Cumulative sum of absolute head differences for the entire model.
                 This is a diagnostic feature meant for comparing MF-OWHM code versions with the same model input (software unit test).


########################################################################################################

                           WARNING_MESSAGE

         THE FOLLOWING COMMENTS WERE PASSED TO THE WARNING ROUTINE

THE WARNING IS BELIEVED TO HAVE ORIGINATED FROM THE FOLLOWING FILE:
"examples\mf-2005\swtex4.ba6"

THE GUESSED LINE THAT THE WARNING OCCURED ON IS:
"FREE  BUDGETDB ./output/swtex4_VolumetricBudget.txt  CUMULATIVE_HEAD_CHANGE ./output/swtex4_CumHCHG.txt  PRINT_HEAD NPER ./output/swtex4_Head.txt"

THE DESCRIPTION OF THE WARNING IS:

...CHECK_FOR_POST_KEY WARNINGS...
 THE FOLLOWING MESSAGES WERE PASSED WHILE CHECKING FOR ANY ADDITIONAL KEYWORDS ON LOADED LINE.


FAILED TO IDENTIFY THE FOLLOWING POST-KEYWORD: 

"PRINT_HEAD"

IT WILL BE IGNORED AND NO FURTHER KEYWORDS WILL BE CHECKED/INCLUDED TO THE RIGHT OF IT.
TO SUPRESS THIS WARNING PLEASE PLACE A "#" SYMBOL TO THE LEFT OF THE WORD TO INDICATE EVERYTHING TO THE RIGHT OF THE # IS A COMMENT

########################################################################################################




 Found Option: PRINT_HEAD
                 NPER ./output/swtex4_Head.txt


 Setting up PRINT_HEAD option for 
    SP    TS   FILE
     3    60   ./output/swtex4_Head.txt

 The total simulation limit for the number PARAMETERs defined is: 
     Max number of PARAMETERs (MXPAR)  is       2000
     Max number of INSTANCEs  (MXINST) is      50000
     Max number of CLUSTERs   (MXCLST) is    2000000




                     BOUNDARY ARRAY FOR LAYER   1
 READING ON UNIT    4 WITH FORMAT: (15I3)              

       1  2  3  4  5  6  7  8  9 10 11 12 13 14 15
 .................................................
   1   0  0  0  0  0  1  1  1  1  1  0  0  0  0  0
   2   0  0  0  0  1  1  1  1  1  1  1  1  0  0  0
   3   0  0  0  1  1  1  1  1  1  1  1  1  0  0  0
   4   0  0  0  1  1  1  1  1  1  1  1  1  0  0  0
   5   0  0  1  1  1  1  1  1  1  1  1  1  1  0  0
   6   0  0  1  1  1  1  1  1  1  1  1  1  1  1  0
   7   0  1  1  1  1  1  1  1  1  1  1  1  1  1  0
   8   0  1  1  1  1  1  1  1  1  1  1  1  1  1  0
   9   1  1  1  1  1  1  1  1  1  1  1  1  1  1  1
  10   1  1  1  1  1  1  1  1  1  1  1  1  1  1  1
  11   1  1  1  1  1  1  1  1  1  1  1  1  1  1  1
  12   0  1  1  1  1  1  1  1  1  1  1  1  1  1  1
  13   0  1  1  1  1  1  1  1  1  1  1  1  1  1  0
  14   0  1  1  1  1  1  1  1  1  1  1  1  1  1  0
  15   0  0  1  1  1  1  1  1  1  1  1  1  1  0  0
  16   0  0  1  1  1  1  1  1  1  1  1  1  1  0  0
  17   0  0  0  1  1  1  1  1  1  1  1  1  1  0  0
  18   0  0  0  1  1  1  1  1  1  1  1  1  0  0  0
  19   0  0  0  0  0  0  1  1  1  1  0  0  0  0  0
  20   0  0  0  0  0  0  0 -1 -1  0  0  0  0  0  0



                     BOUNDARY ARRAY FOR LAYER   2
 READING ON UNIT    4 WITH FORMAT: (15I3)              

       1  2  3  4  5  6  7  8  9 10 11 12 13 14 15
 .................................................
   1   0  0  0  0  0  1  1  1  1  1  0  0  0  0  0
   2   0  0  0  0  1  1  1  1  1  1  1  1  0  0  0
   3   0  0  0  1  1  1  1  1  1  1  1  1  0  0  0
   4   0  0  0  1  1  1  1  1  1  1  1  1  0  0  0
   5   0  0  1  1  1  1  1  1  1  1  1  1  1  0  0
   6   0  0  1  1  1  1  1  1  1  1  1  1  1  1  0
   7   0  1  1  1  1  1  1  1  1  1  1  1  1  1  0
   8   0  1  1  1  1  1  1  1  1  1  1  1  1  1  0
   9   1  1  1  1  1  1  1  1  1  1  1  1  1  1  1
  10   1  1  1  1  1  1  1  1  1  1  1  1  1  1  1
  11   1  1  1  1  1  1  1  1  1  1  1  1  1  1  1
  12   0  1  1  1  1  1  1  1  1  1  1  1  1  1  1
  13   0  1  1  1  1  1  1  1  1  1  1  1  1  1  0
  14   0  1  1  1  1  1  1  1  1  1  1  1  1  1  0
  15   0  0  1  1  1  1  1  1  1  1  1  1  1  0  0
  16   0  0  1  1  1  1  1  1  1  1  1  1  1  0  0
  17   0  0  0  1  1  1  1  1  1  1  1  1  1  0  0
  18   0  0  0  1  1  1  1  1  1  1  1  1  0  0  0
  19   0  0  0  0  0  0  1  1  1  1  0  0  0  0  0
  20   0  0  0  0  0  0  0 -1 -1  0  0  0  0  0  0



                     BOUNDARY ARRAY FOR LAYER   3
 READING ON UNIT    4 WITH FORMAT: (15I3)              

       1  2  3  4  5  6  7  8  9 10 11 12 13 14 15
 .................................................
   1   0  0  0  0  0  1  1  1  1  1  0  0  0  0  0
   2   0  0  0  0  1  1  1  1  1  1  1  1  0  0  0
   3   0  0  0  1  1  1  1  1  1  1  1  1  0  0  0
   4   0  0  0  1  1  1  1  1  1  1  1  1  0  0  0
   5   0  0  1  1  1  1  1  1  1  1  1  1  1  0  0
   6   0  0  1  1  1  1  1  1  1  1  1  1  1  1  0
   7   0  1  1  1  1  1  1  1  1  1  1  1  1  1  0
   8   0  1  1  1  1  1  1  1  1  1  1  1  1  1  0
   9   1  1  1  1  1  1  1  1  1  1  1  1  1  1  1
  10   1  1  1  1  1  1  1  1  1  1  1  1  1  1  1
  11   1  1  1  1  1  1  1  1  1  1  1  1  1  1  1
  12   0  1  1  1  1  1  1  1  1  1  1  1  1  1  1
  13   0  1  1  1  1  1  1  1  1  1  1  1  1  1  0
  14   0  1  1  1  1  1  1  1  1  1  1  1  1  1  0
  15   0  0  1  1  1  1  1  1  1  1  1  1  1  0  0
  16   0  0  1  1  1  1  1  1  1  1  1  1  1  0  0
  17   0  0  0  1  1  1  1  1  1  1  1  1  1  0  0
  18   0  0  0  1  1  1  1  1  1  1  1  1  0  0  0
  19   0  0  0  0  0  0  1  1  1  1  0  0  0  0  0
  20   0  0  0  0  0  0  0 -1 -1  0  0  0  0  0  0



                     BOUNDARY ARRAY FOR LAYER   4
 READING ON UNIT    4 WITH FORMAT: (15I3)              

       1  2  3  4  5  6  7  8  9 10 11 12 13 14 15
 .................................................
   1   0  0  0  0  0  1  1  1  1  1  0  0  0  0  0
   2   0  0  0  0  1  1  1  1  1  1  1  1  0  0  0
   3   0  0  0  1  1  1  1  1  1  1  1  1  0  0  0
   4   0  0  0  1  1  1  1  1  1  1  1  1  0  0  0
   5   0  0  1  1  1  1  1  1  1  1  1  1  1  0  0
   6   0  0  1  1  1  1  1  1  1  1  1  1  1  1  0
   7   0  1  1  1  1  1  1  1  1  1  1  1  1  1  0
   8   0  1  1  1  1  1  1  1  1  1  1  1  1  1  0
   9   1  1  1  1  1  1  1  1  1  1  1  1  1  1  1
  10   1  1  1  1  1  1  1  1  1  1  1  1  1  1  1
  11   1  1  1  1  1  1  1  1  1  1  1  1  1  1  1
  12   0  1  1  1  1  1  1  1  1  1  1  1  1  1  1
  13   0  1  1  1  1  1  1  1  1  1  1  1  1  1  0
  14   0  1  1  1  1  1  1  1  1  1  1  1  1  1  0
  15   0  0  1  1  1  1  1  1  1  1  1  1  1  0  0
  16   0  0  1  1  1  1  1  1  1  1  1  1  1  0  0
  17   0  0  0  1  1  1  1  1  1  1  1  1  1  0  0
  18   0  0  0  1  1  1  1  1  1  1  1  1  0  0  0
  19   0  0  0  0  0  0  1  1  1  1  0  0  0  0  0
  20   0  0  0  0  0  0  0 -1 -1  0  0  0  0  0  0

 AQUIFER HEAD WILL BE SET TO 0.0 AT ALL NO-FLOW NODES (IBOUND=0).


             INITIAL HEAD =   100.000     FOR LAYER   1

             INITIAL HEAD =   100.000     FOR LAYER   2

             INITIAL HEAD =   100.000     FOR LAYER   3

             INITIAL HEAD =   100.000     FOR LAYER   4

-- READING OC PACKAGE INPUT --

# swtex4
# MODFLOW-2005 Example problem documented in:
#   Harbaugh, A.W., 2005, MODFLOW-2005, the U.S. Geological Survey modular ground-water model -- the Ground-Water Flow Process: U.S. Geological Survey Techniques and Methods 6-A16.
#   Harbaugh, A.W., Banta, E.R., Hill, M.C. and McDonald, M.G., 2000, MODFLOW-2000, The U.S. Geological Survey Modular Ground-Water Model - User Guide to Modularization Concepts and the Ground-Water Flow Process: U.S Geological Survey Open-File Report 2000-92, 121 p., https://doi.org/10.3133/ofr200092
#   Leake, S.A., and Galloway, D.L., 2007, MODFLOW ground-water model -- User guide to the Subsidence and Aquifer-System Compaction Package (SUB-WT) for Water-Table Aquifers: U.S. Geological Survey Techniques and Methods, Book 6, Chap. A23, 42 p.
#
#-----------------------------------------------------------------------------------------------------------------------------------------------------



 OUTPUT CONTROL IS SPECIFIED ONLY AT TIME STEPS FOR WHICH OUTPUT IS DESIRED
 HEAD PRINT FORMAT CODE IS   5    DRAWDOWN PRINT FORMAT CODE IS   5
 HEADS WILL BE SAVED ON UNIT   35    DRAWDOWNS WILL BE SAVED ON UNIT    0  WATER BUDGETs WILL BE SAVED ON UNIT 

 LPF -- LAYER-PROPERTY FLOW PACKAGE, VERSION OWHM
         INPUT READ FROM UNIT   11

-- READING LPF PACKAGE INPUT --

# swtex4
# MODFLOW-2005 Example problem documented in:
#   Harbaugh, A.W., 2005, MODFLOW-2005, the U.S. Geological Survey modular ground-water model -- the Ground-Water Flow Process: U.S. Geological Survey Techniques and Methods 6-A16.
#   Harbaugh, A.W., Banta, E.R., Hill, M.C. and McDonald, M.G., 2000, MODFLOW-2000, The U.S. Geological Survey Modular Ground-Water Model - User Guide to Modularization Concepts and the Ground-Water Flow Process: U.S Geological Survey Open-File Report 2000-92, 121 p., https://doi.org/10.3133/ofr200092
#   Leake, S.A., and Galloway, D.L., 2007, MODFLOW ground-water model -- User guide to the Subsidence and Aquifer-System Compaction Package (SUB-WT) for Water-Table Aquifers: U.S. Geological Survey Techniques and Methods, Book 6, Chap. A23, 42 p.
#
#      -Comments are preceded by a # sign
#
#-----------------------------------------------------------------------------------------------------------------------------------------------------


 CELL-BY-CELL FLOWS WILL BE SAVED ON UNIT   34
 HEAD AT CELLS THAT CONVERT TO DRY=  1.00000E+30
 No named parameters

   LAYER FLAGS:
 LAYER       LAYTYP        LAYAVG         CHANI        LAYVKA        LAYWET
 ---------------------------------------------------------------------------
    1             1             0     1.000E+00             0             0
    2             1             0     1.000E+00             0             0
    3             1             0     1.000E+00             0             0
    4             1             0     1.000E+00             0             0

   INTERPRETATION OF LAYER FLAGS:
                        INTERBLOCK     HORIZONTAL    DATA IN
         LAYER TYPE   TRANSMISSIVITY   ANISOTROPY   ARRAY VKA   WETTABILITY
 LAYER      (LAYTYP)      (LAYAVG)       (CHANI)      (LAYVKA)      (LAYWET)
 ---------------------------------------------------------------------------
    1   CONVERTIBLE      HARMONIC     1.000E+00    VERTICAL K  NON-WETTABLE
    2   CONVERTIBLE      HARMONIC     1.000E+00    VERTICAL K  NON-WETTABLE
    3   CONVERTIBLE      HARMONIC     1.000E+00    VERTICAL K  NON-WETTABLE
    4   CONVERTIBLE      HARMONIC     1.000E+00    VERTICAL K  NON-WETTABLE

 WETTING CAPABILITY IS NOT ACTIVE IN ANY LAYER

    HYD. COND. ALONG ROWS =   4.00000     FOR LAYER   1

      VERTICAL HYD. COND. =  0.400000     FOR LAYER   1

         SPECIFIC STORAGE =  1.400000E-06 FOR LAYER   1

           SPECIFIC YIELD =  0.300000     FOR LAYER   1

    HYD. COND. ALONG ROWS =   4.00000     FOR LAYER   2

      VERTICAL HYD. COND. =  0.400000     FOR LAYER   2

         SPECIFIC STORAGE =  1.400000E-06 FOR LAYER   2

           SPECIFIC YIELD =  0.300000     FOR LAYER   2

    HYD. COND. ALONG ROWS =  1.000000E-02 FOR LAYER   3

      VERTICAL HYD. COND. =  1.000000E-02 FOR LAYER   3

         SPECIFIC STORAGE =  1.400000E-06 FOR LAYER   3

           SPECIFIC YIELD =  0.300000     FOR LAYER   3

    HYD. COND. ALONG ROWS =   4.00000     FOR LAYER   4

      VERTICAL HYD. COND. =  0.400000     FOR LAYER   4

         SPECIFIC STORAGE =  1.400000E-06 FOR LAYER   4

           SPECIFIC YIELD =  0.300000     FOR LAYER   4

-- READING WEL PACKAGE INPUT --

# swtex4
# MODFLOW-2005 Example problem documented in:
#   Harbaugh, A.W., 2005, MODFLOW-2005, the U.S. Geological Survey modular ground-water model -- the Ground-Water Flow Process: U.S. Geological Survey Techniques and Methods 6-A16.
#   Harbaugh, A.W., Banta, E.R., Hill, M.C. and McDonald, M.G., 2000, MODFLOW-2000, The U.S. Geological Survey Modular Ground-Water Model - User Guide to Modularization Concepts and the Ground-Water Flow Process: U.S Geological Survey Open-File Report 2000-92, 121 p., https://doi.org/10.3133/ofr200092
#   Leake, S.A., and Galloway, D.L., 2007, MODFLOW ground-water model -- User guide to the Subsidence and Aquifer-System Compaction Package (SUB-WT) for Water-Table Aquifers: U.S. Geological Survey Techniques and Methods, Book 6, Chap. A23, 42 p.
#
#      -Comments are preceded by a # sign
#
#-----------------------------------------------------------------------------------------------------------------------------------------------------



WEL -- WELL PACKAGE, VERSION OWHM INPUT READ FROM UNIT 12

 No named parameters

 NO TABFILE SPECIFIED FOR PACKAGE WEL  


 NO LINEFEEDS ARE SPECIFIED FOR PACKAGE WEL  


MAXIMUM OF 20 ACTIVE WELLS AT ONE TIME

CELL-BY-CELL FLOWS WILL BE SAVED ON UNIT 34


0 Well parameters

 SIP -- STRONGLY-IMPLICIT PROCEDURE SOLUTION PACKAGE
                    VERSION OWHM INPUT READ FROM UNIT   19

-- READING SIP PACKAGE INPUT --

# swtex4
# MODFLOW-2005 Example problem documented in:
#   Harbaugh, A.W., 2005, MODFLOW-2005, the U.S. Geological Survey modular ground-water model -- the Ground-Water Flow Process: U.S. Geological Survey Techniques and Methods 6-A16.
#   Harbaugh, A.W., Banta, E.R., Hill, M.C. and McDonald, M.G., 2000, MODFLOW-2000, The U.S. Geological Survey Modular Ground-Water Model - User Guide to Modularization Concepts and the Ground-Water Flow Process: U.S Geological Survey Open-File Report 2000-92, 121 p., https://doi.org/10.3133/ofr200092
#   Leake, S.A., and Galloway, D.L., 2007, MODFLOW ground-water model -- User guide to the Subsidence and Aquifer-System Compaction Package (SUB-WT) for Water-Table Aquifers: U.S. Geological Survey Techniques and Methods, Book 6, Chap. A23, 42 p.
#
#      -Comments are preceded by a # sign
#
#-----------------------------------------------------------------------------------------------------------------------------------------------------


 MAXIMUM OF 400 ITERATIONS ALLOWED FOR CLOSURE
  5 ITERATION PARAMETERS

          SOLUTION BY THE STRONGLY IMPLICIT PROCEDURE
          -------------------------------------------
 MAXIMUM ITERATIONS ALLOWED FOR CLOSURE =      400
                 ACCELERATION PARAMETER =     1.0000    
      HEAD CHANGE CRITERION FOR CLOSURE =    0.10000E-03
      SIP HEAD CHANGE PRINTOUT INTERVAL =        1

     CALCULATE ITERATION PARAMETERS FROM MODEL CALCULATED WSEED
SWT -- SUBSIDENCE FOR WATER-TABLE PACKAGE, VERSION OWHM INPUT READ FROM UNIT 24

-- READING SWT PACKAGE INPUT --

# swtex4
# MODFLOW-2005 Example problem documented in:
#   Harbaugh, A.W., 2005, MODFLOW-2005, the U.S. Geological Survey modular ground-water model -- the Ground-Water Flow Process: U.S. Geological Survey Techniques and Methods 6-A16.
#   Harbaugh, A.W., Banta, E.R., Hill, M.C. and McDonald, M.G., 2000, MODFLOW-2000, The U.S. Geological Survey Modular Ground-Water Model - User Guide to Modularization Concepts and the Ground-Water Flow Process: U.S Geological Survey Open-File Report 2000-92, 121 p., https://doi.org/10.3133/ofr200092
#   Leake, S.A., and Galloway, D.L., 2007, MODFLOW ground-water model -- User guide to the Subsidence and Aquifer-System Compaction Package (SUB-WT) for Water-Table Aquifers: U.S. Geological Survey Techniques and Methods, Book 6, Chap. A23, 42 p.
#
#      -Comments are preceded by a # sign
#
#-----------------------------------------------------------------------------------------------------------------------------------------------------


    2 OUTPUT CONTROL RECORDS FOR SUB-WT PACKAGE WILL BE READ.

      NUMBER OF SYSTEMS OF INTERBEDS FOR WT SUBSIDENCE:  4
 THICKNESS OF INTERBEDS FOR SUB-WT PACKAGE WILL BE TREATED AS A FUNCTION OF SATURATED THICKNESS.
 VOID RATIO FOR SUB-WT PACKAGE WILL BE TREATED AS A VARIABLE.
 ARRAYS OF OFFSET VALUES WILL BE READ AND ADDED TO INITIAL
 EFFECTIVE STRESS TO GET INITIAL PRECONSOLIDATION STRESS.
 RECOMPRESSION AND COMPRESSION INDICES WILL BE READ
 DIRECTLY INTO ARRAYS.

 MODEL LAYER ASSIGNMENTS FOR EACH OF  4 SUB-WT SYSTEMS OF INTERBEDS:
    1   2   3   4

         GEOSTATIC STRESS =   0.00000     FOR LAYER   1

   MOIST SPECIFIC GRAVITY =   1.70000     FOR LAYER   1

    SAT. SPECIFIC GRAVITY =   2.00000     FOR LAYER   1

  SILT AND CLAY THICKNESS =   45.0000     FOR LAYER   1

      RECOMPRESSION INDEX =  1.000000E-02 FOR LAYER   1

        COMPRESSION INDEX =  0.250000     FOR LAYER   1

               VOID RATIO =  0.820000     FOR LAYER   1

      STARTING COMPACTION =   0.00000     FOR LAYER   1

  SILT AND CLAY THICKNESS =   70.0000     FOR LAYER   2

      RECOMPRESSION INDEX =  1.000000E-02 FOR LAYER   2

        COMPRESSION INDEX =  0.250000     FOR LAYER   2

               VOID RATIO =  0.820000     FOR LAYER   2

      STARTING COMPACTION =   0.00000     FOR LAYER   2

  SILT AND CLAY THICKNESS =   50.0000     FOR LAYER   3

      RECOMPRESSION INDEX =  1.000000E-02 FOR LAYER   3

        COMPRESSION INDEX =  0.250000     FOR LAYER   3

               VOID RATIO =  0.820000     FOR LAYER   3

      STARTING COMPACTION =   0.00000     FOR LAYER   3

  SILT AND CLAY THICKNESS =   90.0000     FOR LAYER   4

      RECOMPRESSION INDEX =  1.000000E-02 FOR LAYER   4

        COMPRESSION INDEX =  0.250000     FOR LAYER   4

               VOID RATIO =  0.820000     FOR LAYER   4

      STARTING COMPACTION =   0.00000     FOR LAYER   4

      PRECONSOL.   STRESS =   15.0000     FOR LAYER   1

      PRECONSOL.   STRESS =   15.0000     FOR LAYER   2

      PRECONSOL.   STRESS =   15.0000     FOR LAYER   3

      PRECONSOL.   STRESS =   15.0000     FOR LAYER   4
 Calculated arrays for SUBWT will be printed after initial steady-state stress period.

             SUBSIDENCE PRINT FORMAT IS NUMBER  10
                 UNIT FOR SAVING SUBSIDENCE IS  70
    COMPACTION BY LAYER PRINT FORMAT IS NUMBER  11
        UNIT FOR SAVING COMPACTION BY LAYER IS  71
   COMPACTION BY SYSTEM PRINT FORMAT IS NUMBER  11
       UNIT FOR SAVING COMPACTION BY SYSTEM IS  71
  VERTICAL DISPLACEMENT PRINT FORMAT IS NUMBER  11
      UNIT FOR SAVING VERTICAL DISPLACEMENT IS  71
PRECONSOLIDATION STRESS PRINT FORMAT IS NUMBER   3
    UNIT FOR SAVING PRECONSOLIDATION STRESS IS  72
CHANGE IN PRECON STRESS PRINT FORMAT IS NUMBER   9
 UNIT FOR SAVING CHANGE IN PRECONSOL STRESS IS  74
       GEOSTATIC STRESS PRINT FORMAT IS NUMBER   3
           UNIT FOR SAVING GEOSTATIC STRESS IS  76
CHNGE IN GEOSTATIC STRS PRINT FORMAT IS NUMBER   4
 UNIT FOR SAVING CHANGE IN GEOSTATIC STRESS IS  76
       EFFECTIVE STRESS PRINT FORMAT IS NUMBER   3
           UNIT FOR SAVING EFFECTIVE STRESS IS  72
  CHANGE IN EFF. STRESS PRINT FORMAT IS NUMBER   9
 UNIT FOR SAVING CHANGE IN EFFECTIVE STRESS IS  78
             VOID RATIO PRINT FORMAT IS NUMBER   3
                 UNIT FOR SAVING VOID RATIO IS  79
              THICKNESS PRINT FORMAT IS NUMBER   3
                  UNIT FOR SAVING THICKNESS IS  80
       CENTER ELEVATION PRINT FORMAT IS NUMBER   3
           UNIT FOR SAVING CENTER ELEVATION IS  81


########################################################################################################

                           WARNING_MESSAGE

         THE FOLLOWING COMMENTS WERE PASSED TO THE WARNING ROUTINE

THE DESCRIPTION OF THE WARNING IS:

DIS PACKAGE: THE GROUND SURFACE ELEVATION WAS NOT SPECIFIED WITH THE KEYWORD "SURFACE_ELEVATION"

BEFORE LOADING THE "TOP" ARRAY FOR LAYER 1
NOR WAS IT DEFINED WITH ANOTHER PACKAGE   (e.g. FMPs GLOBAL DIMENSION KEYWORD "SURFACE_ELEVATION")

OneWater WILL SET THE GROUND SURFACE ELEVATION (GSE)
TO THE TOP ELEVATION OF THE UPPER MOST ACTIVE CELL OR THE DIS TOP OF LAY1.

NOTE THAT SFR DOES USE GSE FOR ALL DIVERSION SEGMENTS
   WHEN "IRDFLG" IS SET TO 2 or -2.

########################################################################################################



1
                            STRESS PERIOD NO.      1, LENGTH =   1.000000    
                            -----------------------------------------------

                              NUMBER OF TIME STEPS =     1

                               MULTIPLIER FOR DELT =     1.000

                            INITIAL TIME STEP SIZE =   1.000000    

PARAMETERS HAVE BEEN USED IN PACKAGES

THE CURRENT STORAGE FOR PARAMETERS IS: 
No. PARAMETER=         0 WITH MAX STORAGE (MXPAR)  OF      2000
No. CLUSTERS =         0 WITH MAX STORAGE (MXCLST) OF   2000000
No. INSTANCES=         0 WITH MAX STORAGE (MXINST) OF     50000

YOU CAN INCREASE/DECREASE STORAGE WITH BAS OPTION:
MAXPARAM  MXPAR  MXCLST MXINST

FYI, YOU CAN REDUCE RAM USUAGE WITH BAS OPTION
(NOTE THE THREE NUMBERS ARE A MINUMUM SIZE):
   MAXPARAM          1         1         1


 WEL PACKAGE STRESS PERIOD INFORMATION [BEFORE APPLICATION OF TABFILES]

 WELL NO.  LAYER   ROW   COL   STRESS RATE         
 --------------------------------------------------
      1      1      1      8   2200.0000    
      2      1      2      5   2200.0000    
      3      1      2      8   2200.0000    
      4      1      2     12   2200.0000    
      5      1      3      4   2200.0000    
      6      1      4     12   2200.0000    
      7      1      5      3   2200.0000    
      8      1      5     13   2200.0000    
      9      1      6     14   2200.0000    
     10      1      7      2   2200.0000    
     11      1     14      2   2200.0000    
     12      1     14     14   2200.0000    
     13      1     16      3   2200.0000    
     14      1     16     13   2200.0000    
     15      1     17     13   2200.0000    
     16      1     18      4   2200.0000    
     17      1     18     12   2200.0000    
     18      1     19      7   2200.0000    

18 WELLS
 
 SOLVING FOR HEAD 

 AVERAGE SEED = 0.00095402
 MINIMUM SEED = 0.00000414

     5 ITERATION PARAMETERS CALCULATED FROM AVERAGE SEED:

  0.000000E+00 0.824252E+00 0.969113E+00 0.994572E+00 0.999046E+00

   362 ITERATIONS FOR TIME STEP   1 IN STRESS PERIOD    1

 MAXIMUM HEAD CHANGE FOR EACH ITERATION:

    HEAD CHANGE   HEAD CHANGE   HEAD CHANGE   HEAD CHANGE   HEAD CHANGE
  LAYER,ROW,COL LAYER,ROW,COL LAYER,ROW,COL LAYER,ROW,COL LAYER,ROW,COL
 ----------------------------------------------------------------------
      1.493        0.7118         1.270         1.455         4.310    
  (  1, 17, 13) (  3, 17, 12) (  1,  1,  6) (  1,  4,  5) (  3,  1, 10)
     0.3897        0.4210        0.6009         1.411         2.747    
  (  4, 12, 15) (  3, 12, 14) (  1, 14, 14) (  4,  1, 10) (  1, 16,  3)
     0.6918        0.2985        0.8152        0.9863         3.352    
  (  4,  5, 13) (  1, 10, 15) (  4,  6, 14) (  1, 13, 14) (  4,  1, 10)
     0.3961        0.3961        0.5398         1.124         2.227    
  (  4, 12, 15) (  3, 12, 14) (  1, 12, 15) (  4,  5, 13) (  1, 16,  3)
     0.5584        0.2554        0.6486        0.8038         2.632    
  (  4,  5, 13) (  1, 10, 15) (  4,  6, 14) (  1, 12, 15) (  4,  1, 10)
     0.3116        0.3082        0.4326        0.8843         1.783    
  (  4, 12, 15) (  3, 12, 14) (  1, 12, 15) (  4,  5, 13) (  1, 16,  3)
     0.4449        0.2060        0.5104        0.6426         2.077    
  (  4,  5, 13) (  1, 10, 15) (  4,  6, 14) (  1, 12, 15) (  4,  1, 10)
     0.2451        0.2404        0.3447        0.6960         1.423    
  (  4, 12, 15) (  3, 12, 14) (  1, 12, 15) (  4,  5, 13) (  1, 16,  3)
     0.3536        0.1653        0.4022        0.5123         1.640    
  (  4,  5, 13) (  1, 10, 15) (  4,  6, 14) (  1, 12, 15) (  4,  1, 10)
     0.1931        0.1883        0.2743        0.5485         1.133    
  (  4, 12, 15) (  3, 12, 14) (  1, 12, 15) (  4,  5, 13) (  1, 16,  3)
     0.2806        0.1321        0.3172        0.4076         1.295    
  (  4,  5, 13) (  1, 10, 15) (  4,  6, 14) (  1, 12, 15) (  4,  1, 10)
     0.1523        0.1478        0.2179        0.4326        0.9002    
  (  4, 12, 15) (  3, 12, 14) (  1, 12, 15) (  4,  5, 13) (  1, 16,  3)
     0.2224        0.1053        0.2503        0.3238         1.023    
  (  4,  5, 13) (  1, 10, 15) (  4,  6, 14) (  1, 13, 14) (  4,  1, 10)
     0.1202        0.1162        0.1729        0.3413        0.7145    
  (  4, 12, 15) (  3, 12, 14) (  1, 12, 15) (  4,  5, 13) (  1, 16,  3)
     0.1762        0.8381E-01    0.1976        0.2570        0.8082    
  (  4,  5, 13) (  1, 10, 15) (  4,  6, 14) (  1, 13, 14) (  4,  1, 10)
     0.9486E-01    0.9144E-01    0.1371        0.2694        0.5665    
  (  4, 12, 15) (  3, 12, 14) (  1, 12, 15) (  4,  5, 13) (  1, 16,  3)
     0.1395        0.6658E-01    0.1560        0.2037        0.6385    
  (  4,  5, 13) (  1, 10, 15) (  4,  6, 14) (  1, 13, 14) (  4,  1, 10)
     0.7490E-01    0.7203E-01    0.1086        0.2127        0.4487    
  (  4, 12, 15) (  3, 12, 14) (  1, 12, 15) (  4,  5, 13) (  1, 16,  3)
     0.1103        0.5282E-01    0.1232        0.1614        0.5044    
  (  4,  5, 13) (  1, 10, 15) (  4,  6, 14) (  1, 13, 14) (  4,  1, 10)
     0.5914E-01    0.5678E-01    0.8595E-01    0.1679        0.3553    
  (  4, 12, 15) (  3, 12, 14) (  1, 12, 15) (  4,  5, 13) (  1, 16,  3)
     0.8725E-01    0.4187E-01    0.9731E-01    0.1278        0.3985    
  (  4,  5, 13) (  1, 10, 15) (  4,  6, 14) (  1, 13, 14) (  4,  1, 10)
     0.4670E-01    0.4478E-01    0.6801E-01    0.1326        0.2811    
  (  4, 12, 15) (  3, 12, 14) (  1, 12, 15) (  4,  5, 13) (  1, 16,  3)
     0.6899E-01    0.3316E-01    0.7685E-01    0.1011        0.3148    
  (  4,  5, 13) (  1, 10, 15) (  4,  6, 14) (  1, 13, 14) (  4,  1, 10)
     0.3688E-01    0.3532E-01    0.5380E-01    0.1047        0.2224    
  (  4, 12, 15) (  3, 12, 14) (  1, 12, 15) (  4,  5, 13) (  1, 16,  3)
     0.5453E-01    0.2625E-01    0.6070E-01    0.7997E-01    0.2487    
  (  4,  5, 13) (  1, 10, 15) (  4,  6, 14) (  1, 13, 14) (  4,  1, 10)
     0.2913E-01    0.2787E-01    0.4254E-01    0.8269E-01    0.1758    
  (  4, 12, 15) (  3, 12, 14) (  1, 12, 15) (  4,  5, 13) (  1, 16,  3)
     0.4310E-01    0.2077E-01    0.4794E-01    0.6324E-01    0.1964    
  (  4,  5, 13) (  1, 10, 15) (  4,  6, 14) (  1, 13, 14) (  4,  1, 10)
     0.2301E-01    0.2200E-01    0.3363E-01    0.6531E-01    0.1390    
  (  4, 12, 15) (  3, 12, 14) (  1, 12, 15) (  4,  5, 13) (  1, 16,  3)
     0.3406E-01    0.1643E-01    0.3786E-01    0.4999E-01    0.1551    
  (  4,  5, 13) (  1, 10, 15) (  4,  6, 14) (  1, 13, 14) (  4,  1, 10)
     0.1817E-01    0.1737E-01    0.2658E-01    0.5158E-01    0.1099    
  (  4, 12, 15) (  3, 12, 14) (  1, 12, 15) (  4,  5, 13) (  1, 16,  3)
     0.2691E-01    0.1299E-01    0.2990E-01    0.3951E-01    0.1225    
  (  4,  5, 13) (  1, 10, 15) (  4,  6, 14) (  1, 13, 14) (  4,  1, 10)
     0.1435E-01    0.1371E-01    0.2101E-01    0.4073E-01    0.8683E-01
  (  4, 12, 15) (  3, 12, 14) (  1, 12, 15) (  4,  5, 13) (  1, 16,  3)
     0.2126E-01    0.1027E-01    0.2362E-01    0.3123E-01    0.9680E-01
  (  4,  5, 13) (  1, 10, 15) (  4,  6, 14) (  1, 13, 14) (  4,  1, 10)
     0.1133E-01    0.1082E-01    0.1660E-01    0.3217E-01    0.6861E-01
  (  4, 12, 15) (  3, 12, 14) (  1, 12, 15) (  4,  5, 13) (  1, 16,  3)
     0.1680E-01    0.8116E-02    0.1866E-01    0.2467E-01    0.7646E-01
  (  4,  5, 13) (  1, 10, 15) (  4,  6, 14) (  1, 13, 14) (  4,  1, 10)
     0.8952E-02    0.8548E-02    0.1311E-01    0.2541E-01    0.5421E-01
  (  4, 12, 15) (  3, 12, 14) (  1, 12, 15) (  4,  5, 13) (  1, 16,  3)
     0.1327E-01    0.6413E-02    0.1473E-01    0.1949E-01    0.6039E-01
  (  4,  5, 13) (  1, 10, 15) (  4,  6, 14) (  1, 13, 14) (  4,  1, 10)
     0.7071E-02    0.6750E-02    0.1036E-01    0.2007E-01    0.4283E-01
  (  4, 12, 15) (  3, 12, 14) (  1, 12, 15) (  4,  5, 13) (  1, 16,  3)
     0.1048E-01    0.5068E-02    0.1164E-01    0.1540E-01    0.4770E-01
  (  4,  5, 13) (  1, 10, 15) (  4,  6, 14) (  1, 13, 14) (  4,  1, 10)
     0.5585E-02    0.5330E-02    0.8186E-02    0.1585E-01    0.3384E-01
  (  4, 12, 15) (  3, 12, 14) (  1, 12, 15) (  4,  5, 13) (  1, 16,  3)
     0.8280E-02    0.4004E-02    0.9192E-02    0.1217E-01    0.3768E-01
  (  4,  5, 13) (  1, 10, 15) (  4,  6, 14) (  1, 13, 14) (  4,  1, 10)
     0.4411E-02    0.4209E-02    0.6466E-02    0.1252E-01    0.2673E-01
  (  4, 12, 15) (  3, 12, 14) (  1, 12, 15) (  4,  5, 13) (  1, 16,  3)
     0.6540E-02    0.3163E-02    0.7260E-02    0.9612E-02    0.2976E-01
  (  4,  5, 13) (  1, 10, 15) (  4,  6, 14) (  1, 13, 14) (  4,  1, 10)
     0.3484E-02    0.3324E-02    0.5108E-02    0.9888E-02    0.2111E-01
  (  4, 12, 15) (  3, 12, 14) (  1, 12, 15) (  4,  5, 13) (  1, 16,  3)
     0.5166E-02    0.2499E-02    0.5734E-02    0.7593E-02    0.2350E-01
  (  4,  5, 13) (  1, 10, 15) (  4,  6, 14) (  1, 13, 14) (  4,  1, 10)
     0.2752E-02    0.2626E-02    0.4035E-02    0.7810E-02    0.1668E-01
  (  4, 12, 15) (  3, 12, 14) (  1, 12, 15) (  4,  5, 13) (  1, 16,  3)
     0.4081E-02    0.1974E-02    0.4529E-02    0.5998E-02    0.1857E-01
  (  4,  5, 13) (  1, 10, 15) (  4,  6, 14) (  1, 13, 14) (  4,  1, 10)
     0.2173E-02    0.2074E-02    0.3187E-02    0.6168E-02    0.1317E-01
  (  4, 12, 15) (  3, 12, 14) (  1, 12, 15) (  4,  5, 13) (  1, 16,  3)
     0.3223E-02    0.1559E-02    0.3577E-02    0.4738E-02    0.1466E-01
  (  4,  5, 13) (  1, 10, 15) (  4,  6, 14) (  1, 13, 14) (  4,  1, 10)
     0.1717E-02    0.1638E-02    0.2518E-02    0.4872E-02    0.1041E-01
  (  4, 12, 15) (  3, 12, 14) (  1, 12, 15) (  4,  5, 13) (  1, 16,  3)
     0.2546E-02    0.1232E-02    0.2825E-02    0.3742E-02    0.1158E-01
  (  4,  5, 13) (  1, 10, 15) (  4,  6, 14) (  1, 13, 14) (  4,  1, 10)
     0.1356E-02    0.1293E-02    0.1989E-02    0.3848E-02    0.8220E-02
  (  4, 12, 15) (  3, 12, 14) (  1, 12, 15) (  4,  5, 13) (  1, 16,  3)
     0.2011E-02    0.9730E-03    0.2232E-02    0.2956E-02    0.9148E-02
  (  4,  5, 13) (  1, 10, 15) (  4,  6, 14) (  1, 13, 14) (  4,  1, 10)
     0.1071E-02    0.1022E-02    0.1571E-02    0.3039E-02    0.6493E-02
  (  4, 12, 15) (  3, 12, 14) (  1, 12, 15) (  4,  5, 13) (  1, 16,  3)
     0.1588E-02    0.7686E-03    0.1763E-02    0.2335E-02    0.7225E-02
  (  4,  5, 13) (  1, 10, 15) (  4,  6, 14) (  1, 13, 14) (  4,  1, 10)
     0.8458E-03    0.8069E-03    0.1241E-02    0.2400E-02    0.5128E-02
  (  4, 12, 15) (  3, 12, 14) (  1, 12, 15) (  4,  5, 13) (  1, 16,  3)
     0.1255E-02    0.6071E-03    0.1392E-02    0.1844E-02    0.5707E-02
  (  4,  5, 13) (  1, 10, 15) (  4,  6, 14) (  1, 13, 14) (  4,  1, 10)
     0.6681E-03    0.6373E-03    0.9799E-03    0.1896E-02    0.4051E-02
  (  4, 12, 15) (  3, 12, 14) (  1, 12, 15) (  4,  5, 13) (  1, 16,  3)
     0.9909E-03    0.4795E-03    0.1100E-02    0.1457E-02    0.4507E-02
  (  4,  5, 13) (  1, 10, 15) (  4,  6, 14) (  1, 13, 14) (  4,  1, 10)
     0.5277E-03    0.5033E-03    0.7740E-03    0.1498E-02    0.3199E-02
  (  4, 12, 15) (  3, 12, 14) (  1, 12, 15) (  4,  5, 13) (  1, 16,  3)
     0.7826E-03    0.3787E-03    0.8685E-03    0.1151E-02    0.3560E-02
  (  4,  5, 13) (  1, 10, 15) (  4,  6, 14) (  1, 13, 14) (  4,  1, 10)
     0.4168E-03    0.3976E-03    0.6113E-03    0.1183E-02    0.2527E-02
  (  4, 12, 15) (  3, 12, 14) (  1, 12, 15) (  4,  5, 13) (  1, 16,  3)
     0.6182E-03    0.2992E-03    0.6860E-03    0.9087E-03    0.2812E-02
  (  4,  5, 13) (  1, 10, 15) (  4,  6, 14) (  1, 13, 14) (  4,  1, 10)
     0.3292E-03    0.3140E-03    0.4829E-03    0.9342E-03    0.1996E-02
  (  4, 12, 15) (  3, 12, 14) (  1, 12, 15) (  4,  5, 13) (  1, 16,  3)
     0.4882E-03    0.2363E-03    0.5418E-03    0.7178E-03    0.2221E-02
  (  4,  5, 13) (  1, 10, 15) (  4,  6, 14) (  1, 13, 14) (  4,  1, 10)
     0.2600E-03    0.2480E-03    0.3814E-03    0.7379E-03    0.1576E-02
  (  4, 12, 15) (  3, 12, 14) (  1, 12, 15) (  4,  5, 13) (  1, 16,  3)
     0.3856E-03    0.1866E-03    0.4279E-03    0.5669E-03    0.1754E-02
  (  4,  5, 13) (  1, 10, 15) (  4,  6, 14) (  1, 13, 14) (  4,  1, 10)
     0.2054E-03    0.1959E-03    0.3012E-03    0.5828E-03    0.1245E-02
  (  4, 12, 15) (  3, 12, 14) (  1, 12, 15) (  4,  5, 13) (  1, 16,  3)
     0.3046E-03    0.1474E-03    0.3380E-03    0.4478E-03    0.1386E-02
  (  4,  5, 13) (  1, 10, 15) (  4,  6, 14) (  1, 13, 14) (  4,  1, 10)
     0.1622E-03    0.1547E-03    0.2379E-03    0.4603E-03    0.9835E-03
  (  4, 12, 15) (  3, 12, 14) (  1, 12, 15) (  4,  5, 13) (  1, 16,  3)
     0.2406E-03    0.1164E-03    0.2670E-03    0.3537E-03    0.1094E-02
  (  4,  5, 13) (  1, 10, 15) (  4,  6, 14) (  1, 13, 14) (  4,  1, 10)
     0.1281E-03    0.1222E-03    0.1879E-03    0.3636E-03    0.7768E-03
  (  4, 12, 15) (  3, 12, 14) (  1, 12, 15) (  4,  5, 13) (  1, 16,  3)
     0.1900E-03    0.9196E-04
  (  4,  5, 13) (  1, 10, 15)



Solver Convergence Information:
                              HClose:  9.1960937E-5
                              RClose:  0.0624110
                           L2-RClose:  0.3961945
                         Rel-Vol-Err:  1.0401828E-10
 

 OUTPUT CONTROL FOR STRESS PERIOD      1   TIME STEP     1
    SAVE BUDGET
    SAVE HEAD FOR ALL LAYERS
    PRINT HEAD FOR ALL LAYERS
 UBUDSV SAVING "         STORAGE" ON UNIT 34 AT TIME STEP 1, STRESS PERIOD 1
 UBUDSV SAVING "   CONSTANT HEAD" ON UNIT 34 AT TIME STEP 1, STRESS PERIOD 1
 UBUDSV SAVING "FLOW RIGHT FACE " ON UNIT 34 AT TIME STEP 1, STRESS PERIOD 1
 UBUDSV SAVING "FLOW FRONT FACE " ON UNIT 34 AT TIME STEP 1, STRESS PERIOD 1
 UBUDSV SAVING "FLOW LOWER FACE " ON UNIT 34 AT TIME STEP 1, STRESS PERIOD 1
 UBUDSV SAVING "           WELLS" ON UNIT 34 AT TIME STEP 1, STRESS PERIOD 1
1
              HEAD IN LAYER   1 AT END OF TIME STEP   1 IN STRESS PERIOD    1
  ---------------------------------------------------------------------------

           1       2       3       4       5       6       7       8       9      10      11      12      13      14      15
 ...........................................................................................................................
   1    0.000   0.000   0.000   0.000   0.000 142.430 142.605 143.298 142.519 142.262   0.000   0.000   0.000   0.000   0.000
   2    0.000   0.000   0.000   0.000 143.136 142.352 142.321 142.891 142.219 142.072 142.280 143.173   0.000   0.000   0.000
   3    0.000   0.000   0.000 142.643 142.082 141.744 141.652 141.713 141.591 141.604 141.821 142.234   0.000   0.000   0.000
   4    0.000   0.000   0.000 141.367 141.164 140.987 140.900 140.887 140.885 140.983 141.280 142.089   0.000   0.000   0.000
   5    0.000   0.000 141.088 140.534 140.314 140.177 140.102 140.080 140.105 140.203 140.412 140.768 141.248   0.000   0.000
   6    0.000   0.000 139.767 139.583 139.434 139.326 139.259 139.237 139.260 139.337 139.474 139.667 139.898 140.298   0.000
   7    0.000 139.362 138.860 138.667 138.538 138.440 138.376 138.350 138.364 138.421 138.513 138.627 138.741 138.841   0.000
   8    0.000 137.968 137.852 137.734 137.622 137.525 137.455 137.421 137.428 137.473 137.544 137.622 137.680 137.695   0.000
   9  136.536 136.889 136.906 136.816 136.696 136.583 136.497 136.452 136.453 136.498 136.571 136.648 136.686 136.604 136.193
  10  136.193 136.178 136.083 135.934 135.767 135.612 135.496 135.434 135.434 135.493 135.596 135.716 135.817 135.850 135.785
  11  135.872 135.555 135.319 135.072 134.823 134.603 134.438 134.351 134.353 134.442 134.601 134.805 135.017 135.199 135.314
  12    0.000 134.859 134.575 134.212 133.852 133.536 133.301 133.177 133.183 133.317 133.562 133.885 134.252 134.622 134.963
  13    0.000 134.486 133.928 133.358 132.836 132.387 132.050 131.871 131.881 132.081 132.444 132.928 133.502 134.108   0.000
  14    0.000 134.882 133.355 132.475 131.751 131.125 130.638 130.371 130.384 130.683 131.211 131.900 132.783 134.409   0.000
  15    0.000   0.000 132.345 131.483 130.579 129.724 129.005 128.586 128.600 129.054 129.827 130.726 131.534   0.000   0.000
  16    0.000   0.000 132.439 130.603 129.382 128.190 127.070 126.364 126.370 127.112 128.342 129.726 131.348   0.000   0.000
  17    0.000   0.000   0.000 129.325 128.199 126.598 124.722 123.425 123.399 124.690 126.758 128.741 130.898   0.000   0.000
  18    0.000   0.000   0.000 129.420 127.569 125.309 121.815 119.209 119.097 121.505 125.352 128.007   0.000   0.000   0.000
  19    0.000   0.000   0.000   0.000   0.000   0.000 118.180 112.473 112.213 116.857   0.000   0.000   0.000   0.000   0.000
  20    0.000   0.000   0.000   0.000   0.000   0.000   0.000 100.000 100.000   0.000   0.000   0.000   0.000   0.000   0.000
1
              HEAD IN LAYER   2 AT END OF TIME STEP   1 IN STRESS PERIOD    1
  ---------------------------------------------------------------------------

           1       2       3       4       5       6       7       8       9      10      11      12      13      14      15
 ...........................................................................................................................
   1    0.000   0.000   0.000   0.000   0.000 142.428 142.599 143.184 142.512 142.260   0.000   0.000   0.000   0.000   0.000
   2    0.000   0.000   0.000   0.000 143.021 142.345 142.315 142.780 142.214 142.070 142.273 143.057   0.000   0.000   0.000
   3    0.000   0.000   0.000 142.528 142.072 141.742 141.650 141.708 141.589 141.603 141.818 142.224   0.000   0.000   0.000
   4    0.000   0.000   0.000 141.360 141.161 140.985 140.899 140.886 140.884 140.981 141.274 141.978   0.000   0.000   0.000
   5    0.000   0.000 140.974 140.528 140.313 140.177 140.101 140.080 140.104 140.202 140.410 140.758 141.132   0.000   0.000
   6    0.000   0.000 139.760 139.581 139.433 139.325 139.259 139.236 139.259 139.336 139.472 139.664 139.888 140.183   0.000
   7    0.000 139.248 138.854 138.666 138.537 138.440 138.376 138.349 138.364 138.420 138.513 138.626 138.738 138.834   0.000
   8    0.000 137.962 137.850 137.734 137.622 137.524 137.455 137.421 137.428 137.472 137.544 137.622 137.679 137.694   0.000
   9  136.536 136.888 136.905 136.816 136.696 136.583 136.497 136.452 136.453 136.498 136.571 136.648 136.686 136.604 136.193
  10  136.193 136.177 136.082 135.933 135.766 135.612 135.496 135.433 135.433 135.492 135.595 135.716 135.817 135.850 135.785
  11  135.872 135.554 135.319 135.071 134.823 134.603 134.438 134.351 134.353 134.441 134.601 134.804 135.017 135.199 135.314
  12    0.000 134.858 134.574 134.212 133.851 133.536 133.301 133.177 133.182 133.317 133.561 133.885 134.252 134.621 134.963
  13    0.000 134.481 133.926 133.357 132.835 132.386 132.049 131.870 131.880 132.081 132.444 132.927 133.501 134.103   0.000
  14    0.000 134.769 133.349 132.474 131.750 131.124 130.638 130.370 130.384 130.682 131.210 131.899 132.777 134.295   0.000
  15    0.000   0.000 132.338 131.480 130.578 129.723 129.004 128.585 128.598 129.053 129.826 130.724 131.528   0.000   0.000
  16    0.000   0.000 132.325 130.597 129.380 128.189 127.068 126.362 126.368 127.110 128.339 129.719 131.233   0.000   0.000
  17    0.000   0.000   0.000 129.319 128.197 126.596 124.718 123.421 123.395 124.687 126.754 128.730 130.778   0.000   0.000
  18    0.000   0.000   0.000 129.306 127.563 125.305 121.806 119.200 119.088 121.499 125.344 127.892   0.000   0.000   0.000
  19    0.000   0.000   0.000   0.000   0.000   0.000 118.062 112.446 112.189 116.851   0.000   0.000   0.000   0.000   0.000
  20    0.000   0.000   0.000   0.000   0.000   0.000   0.000 100.000 100.000   0.000   0.000   0.000   0.000   0.000   0.000
1
              HEAD IN LAYER   3 AT END OF TIME STEP   1 IN STRESS PERIOD    1
  ---------------------------------------------------------------------------

           1       2       3       4       5       6       7       8       9      10      11      12      13      14      15
 ...........................................................................................................................
   1    0.000   0.000   0.000   0.000   0.000 142.368 142.487 142.844 142.408 142.218   0.000   0.000   0.000   0.000   0.000
   2    0.000   0.000   0.000   0.000 142.655 142.239 142.213 142.486 142.125 142.022 142.165 142.688   0.000   0.000   0.000
   3    0.000   0.000   0.000 142.158 141.915 141.682 141.605 141.635 141.551 141.570 141.748 142.054   0.000   0.000   0.000
   4    0.000   0.000   0.000 141.242 141.101 140.958 140.882 140.865 140.868 140.955 141.190 141.663   0.000   0.000   0.000
   5    0.000   0.000 140.620 140.428 140.279 140.163 140.094 140.073 140.096 140.186 140.361 140.610 140.753   0.000   0.000
   6    0.000   0.000 139.650 139.535 139.416 139.318 139.255 139.233 139.255 139.327 139.449 139.600 139.729 139.816   0.000
   7    0.000 138.899 138.758 138.636 138.527 138.435 138.373 138.347 138.362 138.416 138.502 138.601 138.684 138.734   0.000
   8    0.000 137.870 137.812 137.719 137.616 137.522 137.453 137.420 137.426 137.470 137.539 137.612 137.662 137.666   0.000
   9  136.529 136.867 136.892 136.809 136.693 136.581 136.495 136.450 136.452 136.496 136.569 136.644 136.680 136.596 136.190
  10  136.190 136.171 136.077 135.930 135.764 135.611 135.494 135.432 135.432 135.491 135.593 135.714 135.814 135.847 135.783
  11  135.869 135.547 135.314 135.068 134.821 134.601 134.436 134.349 134.351 134.439 134.599 134.801 135.012 135.193 135.311
  12    0.000 134.833 134.561 134.205 133.848 133.533 133.298 133.175 133.180 133.314 133.558 133.878 134.239 134.601 134.956
  13    0.000 134.388 133.887 133.342 132.829 132.383 132.046 131.867 131.877 132.077 132.437 132.912 133.461 134.010   0.000
  14    0.000 134.414 133.251 132.443 131.739 131.118 130.633 130.365 130.378 130.675 131.197 131.866 132.677 133.939   0.000
  15    0.000   0.000 132.226 131.433 130.559 129.713 128.996 128.577 128.590 129.042 129.803 130.671 131.407   0.000   0.000
  16    0.000   0.000 131.961 130.495 129.346 128.172 127.052 126.347 126.352 127.089 128.296 129.595 130.839   0.000   0.000
  17    0.000   0.000   0.000 129.204 128.146 126.565 124.682 123.388 123.364 124.652 126.683 128.536 130.307   0.000   0.000
  18    0.000   0.000   0.000 128.937 127.456 125.248 121.695 119.124 119.030 121.442 125.225 127.495   0.000   0.000   0.000
  19    0.000   0.000   0.000   0.000   0.000   0.000 117.656 112.296 112.099 116.798   0.000   0.000   0.000   0.000   0.000
  20    0.000   0.000   0.000   0.000   0.000   0.000   0.000 100.000 100.000   0.000   0.000   0.000   0.000   0.000   0.000
1
              HEAD IN LAYER   4 AT END OF TIME STEP   1 IN STRESS PERIOD    1
  ---------------------------------------------------------------------------

           1       2       3       4       5       6       7       8       9      10      11      12      13      14      15
 ...........................................................................................................................
   1    0.000   0.000   0.000   0.000   0.000 142.307 142.373 142.497 142.301 142.175   0.000   0.000   0.000   0.000   0.000
   2    0.000   0.000   0.000   0.000 142.281 142.129 142.109 142.187 142.034 141.973 142.054 142.311   0.000   0.000   0.000
   3    0.000   0.000   0.000 141.781 141.754 141.621 141.559 141.560 141.513 141.537 141.677 141.881   0.000   0.000   0.000
   4    0.000   0.000   0.000 141.122 141.040 140.931 140.863 140.844 140.851 140.928 141.104 141.342   0.000   0.000   0.000
   5    0.000   0.000 140.259 140.325 140.244 140.149 140.086 140.065 140.088 140.169 140.311 140.458 140.365   0.000   0.000
   6    0.000   0.000 139.537 139.488 139.398 139.311 139.251 139.230 139.251 139.318 139.425 139.536 139.566 139.440   0.000
   7    0.000 138.542 138.659 138.606 138.516 138.431 138.371 138.345 138.359 138.411 138.491 138.576 138.630 138.632   0.000
   8    0.000 137.777 137.773 137.705 137.610 137.519 137.451 137.418 137.424 137.467 137.534 137.603 137.644 137.639   0.000
   9  136.522 136.845 136.879 136.803 136.690 136.579 136.493 136.449 136.450 136.494 136.566 136.640 136.674 136.589 136.187
  10  136.186 136.164 136.072 135.927 135.762 135.609 135.493 135.430 135.430 135.489 135.592 135.711 135.810 135.843 135.781
  11  135.866 135.540 135.308 135.065 134.819 134.599 134.435 134.347 134.349 134.437 134.596 134.798 135.007 135.187 135.308
  12    0.000 134.809 134.547 134.199 133.844 133.531 133.296 133.172 133.178 133.312 133.554 133.872 134.226 134.579 134.950
  13    0.000 134.293 133.848 133.327 132.822 132.379 132.043 131.864 131.873 132.073 132.430 132.896 133.421 133.916   0.000
  14    0.000 134.052 133.151 132.412 131.727 131.112 130.628 130.361 130.373 130.668 131.184 131.833 132.575 133.576   0.000
  15    0.000   0.000 132.111 131.385 130.540 129.703 128.988 128.569 128.581 129.030 129.781 130.616 131.284   0.000   0.000
  16    0.000   0.000 131.589 130.390 129.310 128.154 127.036 126.331 126.336 127.068 128.252 129.468 130.437   0.000   0.000
  17    0.000   0.000   0.000 129.086 128.093 126.534 124.644 123.354 123.333 124.615 126.610 128.338 129.825   0.000   0.000
  18    0.000   0.000   0.000 128.560 127.347 125.190 121.582 119.047 118.970 121.384 125.102 127.089   0.000   0.000   0.000
  19    0.000   0.000   0.000   0.000   0.000   0.000 117.240 112.143 112.006 116.744   0.000   0.000   0.000   0.000   0.000
  20    0.000   0.000   0.000   0.000   0.000   0.000   0.000 100.000 100.000   0.000   0.000   0.000   0.000   0.000   0.000

 HEAD WILL BE SAVED ON UNIT   35 AT END OF TIME STEP     1 IN STRESS PERIOD      1



  -------------------------------------------------------------------------------------
  VOLUMETRIC BUDGET FOR ENTIRE MODEL AT END OF TIME STEP    1 IN STRESS PERIOD      1
  -------------------------------------------------------------------------------------

     CUMULATIVE VOLUMES      L**3       RATES FOR THIS TIME STEP      L**3/T
     ------------------                 ------------------------

           IN:                                      IN:
           ---                                      ---
             STORAGE =           0.0000               STORAGE =           0.0000
       CONSTANT HEAD =           0.0000         CONSTANT HEAD =           0.0000
               WELLS =       39600.0000                 WELLS =       39600.0000
    INTERBED STORAGE =           0.0000      INTERBED STORAGE =           0.0000

            TOTAL IN =       39600.0000              TOTAL IN =       39600.0000

          OUT:                                     OUT:
          ----                                     ----
             STORAGE =           0.0000               STORAGE =           0.0000
       CONSTANT HEAD =       39592.0030         CONSTANT HEAD =       39592.0030
               WELLS =           0.0000                 WELLS =           0.0000
    INTERBED STORAGE =           0.0000      INTERBED STORAGE =           0.0000

           TOTAL OUT =       39592.0030             TOTAL OUT =       39592.0030

            IN - OUT =           7.9970              IN - OUT =           7.9970

 PERCENT DISCREPANCY =           0.02     PERCENT DISCREPANCY =           0.02


          TIME SUMMARY AT END OF TIME STEP     1 IN STRESS PERIOD      1
                    SECONDS     MINUTES      HOURS       DAYS        YEARS
                    -----------------------------------------------------------
   TIME STEP LENGTH  86400.      1440.0      24.000      1.0000     2.73785E-03
 STRESS PERIOD TIME  86400.      1440.0      24.000      1.0000     2.73785E-03
         TOTAL TIME  86400.      1440.0      24.000      1.0000     2.73785E-03
 
1
                            STRESS PERIOD NO.      2, LENGTH =   21915.00    
                            -----------------------------------------------

                              NUMBER OF TIME STEPS =    60

                               MULTIPLIER FOR DELT =     1.000

                            INITIAL TIME STEP SIZE =   365.2500    

 The following is a calculated (or recalculated) SUB-WT array after the initial steady-state stress period:
1
  GEOSTATIC STRESS IN LAYER   1 AT END OF TIME STEP   1 IN STRESS PERIOD    1
  ---------------------------------------------------------------------------

           1       2       3       4       5       6       7       8       9      10      11      12      13      14      15
 ...........................................................................................................................
   1    170.0   170.0   170.0   170.0   170.0   197.7   197.8   198.0   197.8   197.7   170.0   170.0   170.0   170.0   170.0
   2    170.0   170.0   170.0   170.0   197.9   197.7   197.7   197.9   197.7   197.6   197.7   198.0   170.0   170.0   170.0
   3    170.0   170.0   170.0   197.8   197.6   197.5   197.5   197.5   197.5   197.5   197.5   197.7   170.0   170.0   170.0
   4    170.0   170.0   170.0   197.4   197.3   197.3   197.3   197.3   197.3   197.3   197.4   197.6   170.0   170.0   170.0
   5    170.0   170.0   197.3   197.2   197.1   197.1   197.0   197.0   197.0   197.1   197.1   197.2   197.4   170.0   170.0
   6    170.0   170.0   196.9   196.9   196.8   196.8   196.8   196.8   196.8   196.8   196.8   196.9   197.0   197.1   170.0
   7    170.0   196.8   196.7   196.6   196.6   196.5   196.5   196.5   196.5   196.5   196.6   196.6   196.6   196.7   170.0
   8    170.0   196.4   196.4   196.3   196.3   196.3   196.2   196.2   196.2   196.2   196.3   196.3   196.3   196.3   170.0
   9    196.0   196.1   196.1   196.0   196.0   196.0   195.9   195.9   195.9   195.9   196.0   196.0   196.0   196.0   195.9
  10    195.9   195.9   195.8   195.8   195.7   195.7   195.6   195.6   195.6   195.6   195.7   195.7   195.7   195.8   195.7
  11    195.8   195.7   195.6   195.5   195.4   195.4   195.3   195.3   195.3   195.3   195.4   195.4   195.5   195.6   195.6
  12    170.0   195.5   195.4   195.3   195.2   195.1   195.0   195.0   195.0   195.0   195.1   195.2   195.3   195.4   195.5
  13    170.0   195.3   195.2   195.0   194.9   194.7   194.6   194.6   194.6   194.6   194.7   194.9   195.1   195.2   170.0
  14    170.0   195.5   195.0   194.7   194.5   194.3   194.2   194.1   194.1   194.2   194.4   194.6   194.8   195.3   170.0
  15    170.0   170.0   194.7   194.4   194.2   193.9   193.7   193.6   193.6   193.7   193.9   194.2   194.5   170.0   170.0
  16    170.0   170.0   194.7   194.2   193.8   193.5   193.1   192.9   192.9   193.1   193.5   193.9   194.4   170.0   170.0
  17    170.0   170.0   170.0   193.8   193.5   193.0   192.4   192.0   192.0   192.4   193.0   193.6   194.3   170.0   170.0
  18    170.0   170.0   170.0   193.8   193.3   192.6   191.5   190.8   190.7   191.5   192.6   193.4   170.0   170.0   170.0
  19    170.0   170.0   170.0   170.0   170.0   170.0   190.5   188.7   188.7   190.1   170.0   170.0   170.0   170.0   170.0
  20    170.0   170.0   170.0   170.0   170.0   170.0   170.0   185.0   185.0   170.0   170.0   170.0   170.0   170.0   170.0

 The following is a calculated (or recalculated) SUB-WT array after the initial steady-state stress period:
1
  GEOSTATIC STRESS IN LAYER   2 AT END OF TIME STEP   1 IN STRESS PERIOD    1
  ---------------------------------------------------------------------------

           1       2       3       4       5       6       7       8       9      10      11      12      13      14      15
 ...........................................................................................................................
   1    425.0   425.0   425.0   425.0   425.0   497.7   497.8   498.0   497.8   497.7   425.0   425.0   425.0   425.0   425.0
   2    425.0   425.0   425.0   425.0   497.9   497.7   497.7   497.9   497.7   497.6   497.7   498.0   425.0   425.0   425.0
   3    425.0   425.0   425.0   497.8   497.6   497.5   497.5   497.5   497.5   497.5   497.5   497.7   425.0   425.0   425.0
   4    425.0   425.0   425.0   497.4   497.3   497.3   497.3   497.3   497.3   497.3   497.4   497.6   425.0   425.0   425.0
   5    425.0   425.0   497.3   497.2   497.1   497.1   497.0   497.0   497.0   497.1   497.1   497.2   497.4   425.0   425.0
   6    425.0   425.0   496.9   496.9   496.8   496.8   496.8   496.8   496.8   496.8   496.8   496.9   497.0   497.1   425.0
   7    425.0   496.8   496.7   496.6   496.6   496.5   496.5   496.5   496.5   496.5   496.6   496.6   496.6   496.7   425.0
   8    425.0   496.4   496.4   496.3   496.3   496.3   496.2   496.2   496.2   496.2   496.3   496.3   496.3   496.3   425.0
   9    496.0   496.1   496.1   496.0   496.0   496.0   495.9   495.9   495.9   495.9   496.0   496.0   496.0   496.0   495.9
  10    495.9   495.9   495.8   495.8   495.7   495.7   495.6   495.6   495.6   495.6   495.7   495.7   495.7   495.8   495.7
  11    495.8   495.7   495.6   495.5   495.4   495.4   495.3   495.3   495.3   495.3   495.4   495.4   495.5   495.6   495.6
  12    425.0   495.5   495.4   495.3   495.2   495.1   495.0   495.0   495.0   495.0   495.1   495.2   495.3   495.4   495.5
  13    425.0   495.3   495.2   495.0   494.9   494.7   494.6   494.6   494.6   494.6   494.7   494.9   495.1   495.2   425.0
  14    425.0   495.5   495.0   494.7   494.5   494.3   494.2   494.1   494.1   494.2   494.4   494.6   494.8   495.3   425.0
  15    425.0   425.0   494.7   494.4   494.2   493.9   493.7   493.6   493.6   493.7   493.9   494.2   494.5   425.0   425.0
  16    425.0   425.0   494.7   494.2   493.8   493.5   493.1   492.9   492.9   493.1   493.5   493.9   494.4   425.0   425.0
  17    425.0   425.0   425.0   493.8   493.5   493.0   492.4   492.0   492.0   492.4   493.0   493.6   494.3   425.0   425.0
  18    425.0   425.0   425.0   493.8   493.3   492.6   491.5   490.8   490.7   491.5   492.6   493.4   425.0   425.0   425.0
  19    425.0   425.0   425.0   425.0   425.0   425.0   490.5   488.7   488.7   490.1   425.0   425.0   425.0   425.0   425.0
  20    425.0   425.0   425.0   425.0   425.0   425.0   425.0   485.0   485.0   425.0   425.0   425.0   425.0   425.0   425.0

 The following is a calculated (or recalculated) SUB-WT array after the initial steady-state stress period:
1
  GEOSTATIC STRESS IN LAYER   3 AT END OF TIME STEP   1 IN STRESS PERIOD    1
  ---------------------------------------------------------------------------

           1       2       3       4       5       6       7       8       9      10      11      12      13      14      15
 ...........................................................................................................................
   1    510.0   510.0   510.0   510.0   510.0   597.7   597.8   598.0   597.8   597.7   510.0   510.0   510.0   510.0   510.0
   2    510.0   510.0   510.0   510.0   597.9   597.7   597.7   597.9   597.7   597.6   597.7   598.0   510.0   510.0   510.0
   3    510.0   510.0   510.0   597.8   597.6   597.5   597.5   597.5   597.5   597.5   597.5   597.7   510.0   510.0   510.0
   4    510.0   510.0   510.0   597.4   597.3   597.3   597.3   597.3   597.3   597.3   597.4   597.6   510.0   510.0   510.0
   5    510.0   510.0   597.3   597.2   597.1   597.1   597.0   597.0   597.0   597.1   597.1   597.2   597.4   510.0   510.0
   6    510.0   510.0   596.9   596.9   596.8   596.8   596.8   596.8   596.8   596.8   596.8   596.9   597.0   597.1   510.0
   7    510.0   596.8   596.7   596.6   596.6   596.5   596.5   596.5   596.5   596.5   596.6   596.6   596.6   596.7   510.0
   8    510.0   596.4   596.4   596.3   596.3   596.3   596.2   596.2   596.2   596.2   596.3   596.3   596.3   596.3   510.0
   9    596.0   596.1   596.1   596.0   596.0   596.0   595.9   595.9   595.9   595.9   596.0   596.0   596.0   596.0   595.9
  10    595.9   595.9   595.8   595.8   595.7   595.7   595.6   595.6   595.6   595.6   595.7   595.7   595.7   595.8   595.7
  11    595.8   595.7   595.6   595.5   595.4   595.4   595.3   595.3   595.3   595.3   595.4   595.4   595.5   595.6   595.6
  12    510.0   595.5   595.4   595.3   595.2   595.1   595.0   595.0   595.0   595.0   595.1   595.2   595.3   595.4   595.5
  13    510.0   595.3   595.2   595.0   594.9   594.7   594.6   594.6   594.6   594.6   594.7   594.9   595.1   595.2   510.0
  14    510.0   595.5   595.0   594.7   594.5   594.3   594.2   594.1   594.1   594.2   594.4   594.6   594.8   595.3   510.0
  15    510.0   510.0   594.7   594.4   594.2   593.9   593.7   593.6   593.6   593.7   593.9   594.2   594.5   510.0   510.0
  16    510.0   510.0   594.7   594.2   593.8   593.5   593.1   592.9   592.9   593.1   593.5   593.9   594.4   510.0   510.0
  17    510.0   510.0   510.0   593.8   593.5   593.0   592.4   592.0   592.0   592.4   593.0   593.6   594.3   510.0   510.0
  18    510.0   510.0   510.0   593.8   593.3   592.6   591.5   590.8   590.7   591.5   592.6   593.4   510.0   510.0   510.0
  19    510.0   510.0   510.0   510.0   510.0   510.0   590.5   588.7   588.7   590.1   510.0   510.0   510.0   510.0   510.0
  20    510.0   510.0   510.0   510.0   510.0   510.0   510.0   585.0   585.0   510.0   510.0   510.0   510.0   510.0   510.0

 The following is a calculated (or recalculated) SUB-WT array after the initial steady-state stress period:
1
  GEOSTATIC STRESS IN LAYER   4 AT END OF TIME STEP   1 IN STRESS PERIOD    1
  ---------------------------------------------------------------------------

           1       2       3       4       5       6       7       8       9      10      11      12      13      14      15
 ...........................................................................................................................
   1    850.0   850.0   850.0   850.0   850.0   997.7   997.8   998.0   997.8   997.7   850.0   850.0   850.0   850.0   850.0
   2    850.0   850.0   850.0   850.0   997.9   997.7   997.7   997.9   997.7   997.6   997.7   998.0   850.0   850.0   850.0
   3    850.0   850.0   850.0   997.8   997.6   997.5   997.5   997.5   997.5   997.5   997.5   997.7   850.0   850.0   850.0
   4    850.0   850.0   850.0   997.4   997.3   997.3   997.3   997.3   997.3   997.3   997.4   997.6   850.0   850.0   850.0
   5    850.0   850.0   997.3   997.2   997.1   997.1   997.0   997.0   997.0   997.1   997.1   997.2   997.4   850.0   850.0
   6    850.0   850.0   996.9   996.9   996.8   996.8   996.8   996.8   996.8   996.8   996.8   996.9   997.0   997.1   850.0
   7    850.0   996.8   996.7   996.6   996.6   996.5   996.5   996.5   996.5   996.5   996.6   996.6   996.6   996.7   850.0
   8    850.0   996.4   996.4   996.3   996.3   996.3   996.2   996.2   996.2   996.2   996.3   996.3   996.3   996.3   850.0
   9    996.0   996.1   996.1   996.0   996.0   996.0   995.9   995.9   995.9   995.9   996.0   996.0   996.0   996.0   995.9
  10    995.9   995.9   995.8   995.8   995.7   995.7   995.6   995.6   995.6   995.6   995.7   995.7   995.7   995.8   995.7
  11    995.8   995.7   995.6   995.5   995.4   995.4   995.3   995.3   995.3   995.3   995.4   995.4   995.5   995.6   995.6
  12    850.0   995.5   995.4   995.3   995.2   995.1   995.0   995.0   995.0   995.0   995.1   995.2   995.3   995.4   995.5
  13    850.0   995.3   995.2   995.0   994.9   994.7   994.6   994.6   994.6   994.6   994.7   994.9   995.1   995.2   850.0
  14    850.0   995.5   995.0   994.7   994.5   994.3   994.2   994.1   994.1   994.2   994.4   994.6   994.8   995.3   850.0
  15    850.0   850.0   994.7   994.4   994.2   993.9   993.7   993.6   993.6   993.7   993.9   994.2   994.5   850.0   850.0
  16    850.0   850.0   994.7   994.2   993.8   993.5   993.1   992.9   992.9   993.1   993.5   993.9   994.4   850.0   850.0
  17    850.0   850.0   850.0   993.8   993.5   993.0   992.4   992.0   992.0   992.4   993.0   993.6   994.3   850.0   850.0
  18    850.0   850.0   850.0   993.8   993.3   992.6   991.5   990.8   990.7   991.5   992.6   993.4   850.0   850.0   850.0
  19    850.0   850.0   850.0   850.0   850.0   850.0   990.5   988.7   988.7   990.1   850.0   850.0   850.0   850.0   850.0
  20    850.0   850.0   850.0   850.0   850.0   850.0   850.0   985.0   985.0   850.0   850.0   850.0   850.0   850.0   850.0

 The following is a calculated (or recalculated) SUB-WT array after the initial steady-state stress period:
1
  EFFECTIVE STRESS IN LAYER   1 AT END OF TIME STEP   1 IN STRESS PERIOD    1
  ---------------------------------------------------------------------------

           1       2       3       4       5       6       7       8       9      10      11      12      13      14      15
 ...........................................................................................................................
   1      0.0     0.0     0.0     0.0     0.0   105.3   105.2   104.7   105.2   105.4     0.0     0.0     0.0     0.0     0.0
   2      0.0     0.0     0.0     0.0   104.8   105.4   105.4   105.0   105.4   105.5   105.4   104.8     0.0     0.0     0.0
   3      0.0     0.0     0.0   105.1   105.5   105.8   105.8   105.8   105.9   105.9   105.7   105.4     0.0     0.0     0.0
   4      0.0     0.0     0.0   106.0   106.2   106.3   106.4   106.4   106.4   106.3   106.1   105.5     0.0     0.0     0.0
   5      0.0     0.0   106.2   106.6   106.8   106.9   106.9   106.9   106.9   106.9   106.7   106.5   106.1     0.0     0.0
   6      0.0     0.0   107.2   107.3   107.4   107.5   107.5   107.5   107.5   107.5   107.4   107.2   107.1   106.8     0.0
   7      0.0   107.4   107.8   107.9   108.0   108.1   108.1   108.2   108.1   108.1   108.0   108.0   107.9   107.8     0.0
   8      0.0   108.4   108.5   108.6   108.7   108.7   108.8   108.8   108.8   108.8   108.7   108.7   108.6   108.6     0.0
   9    109.4   109.2   109.2   109.2   109.3   109.4   109.5   109.5   109.5   109.5   109.4   109.3   109.3   109.4   109.7
  10    109.7   109.7   109.7   109.8   110.0   110.1   110.2   110.2   110.2   110.2   110.1   110.0   109.9   109.9   110.0
  11    109.9   110.1   110.3   110.4   110.6   110.8   110.9   111.0   111.0   110.9   110.8   110.6   110.5   110.4   110.3
  12      0.0   110.6   110.8   111.1   111.3   111.5   111.7   111.8   111.8   111.7   111.5   111.3   111.0   110.8   110.5
  13      0.0   110.9   111.3   111.6   112.0   112.3   112.6   112.7   112.7   112.5   112.3   112.0   111.5   111.1     0.0
  14      0.0   110.6   111.7   112.3   112.8   113.2   113.6   113.7   113.7   113.5   113.2   112.7   112.1   110.9     0.0
  15      0.0     0.0   112.4   113.0   113.6   114.2   114.7   115.0   115.0   114.7   114.1   113.5   112.9     0.0     0.0
  16      0.0     0.0   112.3   113.6   114.4   115.3   116.1   116.5   116.5   116.0   115.2   114.2   113.1     0.0     0.0
  17      0.0     0.0     0.0   114.5   115.3   116.4   117.7   118.6   118.6   117.7   116.3   114.9   113.4     0.0     0.0
  18      0.0     0.0     0.0   114.4   115.7   117.3   119.7   121.6   121.6   119.9   117.3   115.4     0.0     0.0     0.0
  19      0.0     0.0     0.0     0.0     0.0     0.0   122.3   126.3   126.5   123.2     0.0     0.0     0.0     0.0     0.0
  20      0.0     0.0     0.0     0.0     0.0     0.0     0.0   135.0   135.0     0.0     0.0     0.0     0.0     0.0     0.0

 The following is a calculated (or recalculated) SUB-WT array after the initial steady-state stress period:
1
  EFFECTIVE STRESS IN LAYER   2 AT END OF TIME STEP   1 IN STRESS PERIOD    1
  ---------------------------------------------------------------------------

           1       2       3       4       5       6       7       8       9      10      11      12      13      14      15
 ...........................................................................................................................
   1      0.0     0.0     0.0     0.0     0.0   255.3   255.2   254.8   255.2   255.4     0.0     0.0     0.0     0.0     0.0
   2      0.0     0.0     0.0     0.0   254.9   255.4   255.4   255.1   255.5   255.6   255.4   254.9     0.0     0.0     0.0
   3      0.0     0.0     0.0   255.3   255.6   255.8   255.8   255.8   255.9   255.9   255.7   255.4     0.0     0.0     0.0
   4      0.0     0.0     0.0   256.1   256.2   256.3   256.4   256.4   256.4   256.3   256.1   255.6     0.0     0.0     0.0
   5      0.0     0.0   256.4   256.6   256.8   256.9   256.9   256.9   256.9   256.9   256.7   256.5   256.2     0.0     0.0
   6      0.0     0.0   257.2   257.3   257.4   257.5   257.5   257.5   257.5   257.5   257.4   257.2   257.1   256.9     0.0
   7      0.0   257.6   257.8   257.9   258.0   258.1   258.1   258.2   258.1   258.1   258.0   258.0   257.9   257.8     0.0
   8      0.0   258.4   258.5   258.6   258.7   258.7   258.8   258.8   258.8   258.8   258.7   258.7   258.6   258.6     0.0
   9    259.4   259.2   259.2   259.2   259.3   259.4   259.5   259.5   259.5   259.5   259.4   259.3   259.3   259.4   259.7
  10    259.7   259.7   259.7   259.8   260.0   260.1   260.2   260.2   260.2   260.2   260.1   260.0   259.9   259.9   260.0
  11    259.9   260.1   260.3   260.5   260.6   260.8   260.9   261.0   261.0   260.9   260.8   260.6   260.5   260.4   260.3
  12      0.0   260.6   260.8   261.1   261.3   261.5   261.7   261.8   261.8   261.7   261.5   261.3   261.0   260.8   260.5
  13      0.0   260.9   261.3   261.7   262.0   262.3   262.6   262.7   262.7   262.5   262.3   262.0   261.6   261.1     0.0
  14      0.0   260.7   261.7   262.3   262.8   263.2   263.6   263.7   263.7   263.5   263.2   262.7   262.1   261.0     0.0
  15      0.0     0.0   262.4   263.0   263.6   264.2   264.7   265.0   265.0   264.7   264.1   263.5   262.9     0.0     0.0
  16      0.0     0.0   262.4   263.6   264.4   265.3   266.1   266.5   266.5   266.0   265.2   264.2   263.2     0.0     0.0
  17      0.0     0.0     0.0   264.5   265.3   266.4   267.7   268.6   268.6   267.7   266.3   264.9   263.5     0.0     0.0
  18      0.0     0.0     0.0   264.5   265.7   267.3   269.7   271.6   271.6   270.0   267.3   265.5     0.0     0.0     0.0
  19      0.0     0.0     0.0     0.0     0.0     0.0   272.4   276.3   276.5   273.2     0.0     0.0     0.0     0.0     0.0
  20      0.0     0.0     0.0     0.0     0.0     0.0     0.0   285.0   285.0     0.0     0.0     0.0     0.0     0.0     0.0

 The following is a calculated (or recalculated) SUB-WT array after the initial steady-state stress period:
1
  EFFECTIVE STRESS IN LAYER   3 AT END OF TIME STEP   1 IN STRESS PERIOD    1
  ---------------------------------------------------------------------------

           1       2       3       4       5       6       7       8       9      10      11      12      13      14      15
 ...........................................................................................................................
   1      0.0     0.0     0.0     0.0     0.0   305.4   305.3   305.1   305.3   305.5     0.0     0.0     0.0     0.0     0.0
   2      0.0     0.0     0.0     0.0   305.3   305.5   305.5   305.4   305.5   305.6   305.5   305.3     0.0     0.0     0.0
   3      0.0     0.0     0.0   305.6   305.7   305.8   305.9   305.9   305.9   305.9   305.8   305.6     0.0     0.0     0.0
   4      0.0     0.0     0.0   306.2   306.2   306.3   306.4   306.4   306.4   306.3   306.2   306.0     0.0     0.0     0.0
   5      0.0     0.0   306.7   306.7   306.8   306.9   306.9   307.0   306.9   306.9   306.8   306.6   306.6     0.0     0.0
   6      0.0     0.0   307.3   307.3   307.4   307.5   307.5   307.5   307.5   307.5   307.4   307.3   307.2   307.3     0.0
   7      0.0   307.9   307.9   308.0   308.0   308.1   308.1   308.2   308.1   308.1   308.1   308.0   307.9   307.9     0.0
   8      0.0   308.5   308.5   308.6   308.7   308.7   308.8   308.8   308.8   308.8   308.7   308.7   308.6   308.6     0.0
   9    309.4   309.2   309.2   309.2   309.3   309.4   309.5   309.5   309.5   309.5   309.4   309.4   309.3   309.4   309.7
  10    309.7   309.7   309.7   309.8   310.0   310.1   310.2   310.2   310.2   310.2   310.1   310.0   309.9   309.9   310.0
  11    309.9   310.1   310.3   310.5   310.6   310.8   310.9   311.0   311.0   310.9   310.8   310.6   310.5   310.4   310.3
  12      0.0   310.6   310.8   311.1   311.3   311.5   311.7   311.8   311.8   311.7   311.5   311.3   311.0   310.8   310.5
  13      0.0   311.0   311.3   311.7   312.0   312.3   312.6   312.7   312.7   312.5   312.3   312.0   311.6   311.2     0.0
  14      0.0   311.1   311.8   312.3   312.8   313.2   313.6   313.7   313.7   313.5   313.2   312.7   312.2   311.4     0.0
  15      0.0     0.0   312.5   313.0   313.6   314.2   314.7   315.0   315.0   314.7   314.1   313.5   313.1     0.0     0.0
  16      0.0     0.0   312.8   313.7   314.5   315.3   316.1   316.6   316.6   316.0   315.2   314.3   313.6     0.0     0.0
  17      0.0     0.0     0.0   314.6   315.3   316.4   317.7   318.6   318.7   317.8   316.3   315.1   314.0     0.0     0.0
  18      0.0     0.0     0.0   314.9   315.8   317.3   319.8   321.6   321.7   320.0   317.4   315.9     0.0     0.0     0.0
  19      0.0     0.0     0.0     0.0     0.0     0.0   322.8   326.4   326.6   323.3     0.0     0.0     0.0     0.0     0.0
  20      0.0     0.0     0.0     0.0     0.0     0.0     0.0   335.0   335.0     0.0     0.0     0.0     0.0     0.0     0.0

 The following is a calculated (or recalculated) SUB-WT array after the initial steady-state stress period:
1
  EFFECTIVE STRESS IN LAYER   4 AT END OF TIME STEP   1 IN STRESS PERIOD    1
  ---------------------------------------------------------------------------

           1       2       3       4       5       6       7       8       9      10      11      12      13      14      15
 ...........................................................................................................................
   1      0.0     0.0     0.0     0.0     0.0   505.4   505.4   505.5   505.5   505.5     0.0     0.0     0.0     0.0     0.0
   2      0.0     0.0     0.0     0.0   505.7   505.6   505.6   505.7   505.6   505.6   505.6   505.6     0.0     0.0     0.0
   3      0.0     0.0     0.0   506.0   505.9   505.9   505.9   506.0   506.0   505.9   505.9   505.8     0.0     0.0     0.0
   4      0.0     0.0     0.0   506.3   506.3   506.4   506.4   506.4   506.4   506.4   506.3   506.3     0.0     0.0     0.0
   5      0.0     0.0   507.1   506.8   506.9   506.9   506.9   507.0   506.9   506.9   506.8   506.8   507.0     0.0     0.0
   6      0.0     0.0   507.4   507.4   507.4   507.5   507.5   507.5   507.5   507.5   507.4   507.4   507.4   507.6     0.0
   7      0.0   508.3   508.0   508.0   508.0   508.1   508.1   508.2   508.2   508.1   508.1   508.0   508.0   508.0     0.0
   8      0.0   508.6   508.6   508.6   508.7   508.7   508.8   508.8   508.8   508.8   508.7   508.7   508.7   508.7     0.0
   9    509.4   509.2   509.2   509.2   509.3   509.4   509.5   509.5   509.5   509.5   509.4   509.4   509.3   509.4   509.7
  10    509.7   509.7   509.8   509.9   510.0   510.1   510.2   510.2   510.2   510.2   510.1   510.0   509.9   509.9   510.0
  11    509.9   510.1   510.3   510.5   510.6   510.8   510.9   511.0   511.0   510.9   510.8   510.6   510.5   510.4   510.3
  12      0.0   510.6   510.8   511.1   511.3   511.5   511.7   511.8   511.8   511.7   511.5   511.3   511.0   510.8   510.5
  13      0.0   511.1   511.3   511.7   512.0   512.3   512.6   512.7   512.7   512.6   512.3   512.0   511.6   511.3     0.0
  14      0.0   511.4   511.9   512.3   512.8   513.2   513.6   513.8   513.7   513.5   513.2   512.7   512.3   511.7     0.0
  15      0.0     0.0   512.6   513.1   513.6   514.2   514.7   515.0   515.0   514.7   514.2   513.6   513.2     0.0     0.0
  16      0.0     0.0   513.1   513.8   514.5   515.3   516.1   516.6   516.6   516.1   515.3   514.4   514.0     0.0     0.0
  17      0.0     0.0     0.0   514.7   515.4   516.4   517.8   518.7   518.7   517.8   516.4   515.3   514.4     0.0     0.0
  18      0.0     0.0     0.0   515.3   515.9   517.4   520.0   521.7   521.8   520.1   517.5   516.3     0.0     0.0     0.0
  19      0.0     0.0     0.0     0.0     0.0     0.0   523.2   526.6   526.7   523.3     0.0     0.0     0.0     0.0     0.0
  20      0.0     0.0     0.0     0.0     0.0     0.0     0.0   535.0   535.0     0.0     0.0     0.0     0.0     0.0     0.0

 The following is a calculated (or recalculated) SUB-WT array after the initial steady-state stress period:
1
  PRECONSOL STRESS IN LAYER   1 AT END OF TIME STEP   1 IN STRESS PERIOD    1
  ---------------------------------------------------------------------------

           1       2       3       4       5       6       7       8       9      10      11      12      13      14      15
 ...........................................................................................................................
   1      0.0     0.0     0.0     0.0     0.0   120.3   120.2   119.7   120.2   120.4     0.0     0.0     0.0     0.0     0.0
   2      0.0     0.0     0.0     0.0   119.8   120.4   120.4   120.0   120.4   120.5   120.4   119.8     0.0     0.0     0.0
   3      0.0     0.0     0.0   120.1   120.5   120.8   120.8   120.8   120.9   120.9   120.7   120.4     0.0     0.0     0.0
   4      0.0     0.0     0.0   121.0   121.2   121.3   121.4   121.4   121.4   121.3   121.1   120.5     0.0     0.0     0.0
   5      0.0     0.0   121.2   121.6   121.8   121.9   121.9   121.9   121.9   121.9   121.7   121.5   121.1     0.0     0.0
   6      0.0     0.0   122.2   122.3   122.4   122.5   122.5   122.5   122.5   122.5   122.4   122.2   122.1   121.8     0.0
   7      0.0   122.4   122.8   122.9   123.0   123.1   123.1   123.2   123.1   123.1   123.0   123.0   122.9   122.8     0.0
   8      0.0   123.4   123.5   123.6   123.7   123.7   123.8   123.8   123.8   123.8   123.7   123.7   123.6   123.6     0.0
   9    124.4   124.2   124.2   124.2   124.3   124.4   124.5   124.5   124.5   124.5   124.4   124.3   124.3   124.4   124.7
  10    124.7   124.7   124.7   124.8   125.0   125.1   125.2   125.2   125.2   125.2   125.1   125.0   124.9   124.9   125.0
  11    124.9   125.1   125.3   125.4   125.6   125.8   125.9   126.0   126.0   125.9   125.8   125.6   125.5   125.4   125.3
  12      0.0   125.6   125.8   126.1   126.3   126.5   126.7   126.8   126.8   126.7   126.5   126.3   126.0   125.8   125.5
  13      0.0   125.9   126.3   126.6   127.0   127.3   127.6   127.7   127.7   127.5   127.3   127.0   126.5   126.1     0.0
  14      0.0   125.6   126.7   127.3   127.8   128.2   128.6   128.7   128.7   128.5   128.2   127.7   127.1   125.9     0.0
  15      0.0     0.0   127.4   128.0   128.6   129.2   129.7   130.0   130.0   129.7   129.1   128.5   127.9     0.0     0.0
  16      0.0     0.0   127.3   128.6   129.4   130.3   131.1   131.5   131.5   131.0   130.2   129.2   128.1     0.0     0.0
  17      0.0     0.0     0.0   129.5   130.3   131.4   132.7   133.6   133.6   132.7   131.3   129.9   128.4     0.0     0.0
  18      0.0     0.0     0.0   129.4   130.7   132.3   134.7   136.6   136.6   134.9   132.3   130.4     0.0     0.0     0.0
  19      0.0     0.0     0.0     0.0     0.0     0.0   137.3   141.3   141.5   138.2     0.0     0.0     0.0     0.0     0.0
  20      0.0     0.0     0.0     0.0     0.0     0.0     0.0     0.0     0.0     0.0     0.0     0.0     0.0     0.0     0.0

 The following is a calculated (or recalculated) SUB-WT array after the initial steady-state stress period:
1
  PRECONSOL STRESS IN LAYER   2 AT END OF TIME STEP   1 IN STRESS PERIOD    1
  ---------------------------------------------------------------------------

           1       2       3       4       5       6       7       8       9      10      11      12      13      14      15
 ...........................................................................................................................
   1      0.0     0.0     0.0     0.0     0.0   270.3   270.2   269.8   270.2   270.4     0.0     0.0     0.0     0.0     0.0
   2      0.0     0.0     0.0     0.0   269.9   270.4   270.4   270.1   270.5   270.6   270.4   269.9     0.0     0.0     0.0
   3      0.0     0.0     0.0   270.3   270.6   270.8   270.8   270.8   270.9   270.9   270.7   270.4     0.0     0.0     0.0
   4      0.0     0.0     0.0   271.1   271.2   271.3   271.4   271.4   271.4   271.3   271.1   270.6     0.0     0.0     0.0
   5      0.0     0.0   271.4   271.6   271.8   271.9   271.9   271.9   271.9   271.9   271.7   271.5   271.2     0.0     0.0
   6      0.0     0.0   272.2   272.3   272.4   272.5   272.5   272.5   272.5   272.5   272.4   272.2   272.1   271.9     0.0
   7      0.0   272.6   272.8   272.9   273.0   273.1   273.1   273.2   273.1   273.1   273.0   273.0   272.9   272.8     0.0
   8      0.0   273.4   273.5   273.6   273.7   273.7   273.8   273.8   273.8   273.8   273.7   273.7   273.6   273.6     0.0
   9    274.4   274.2   274.2   274.2   274.3   274.4   274.5   274.5   274.5   274.5   274.4   274.3   274.3   274.4   274.7
  10    274.7   274.7   274.7   274.8   275.0   275.1   275.2   275.2   275.2   275.2   275.1   275.0   274.9   274.9   275.0
  11    274.9   275.1   275.3   275.5   275.6   275.8   275.9   276.0   276.0   275.9   275.8   275.6   275.5   275.4   275.3
  12      0.0   275.6   275.8   276.1   276.3   276.5   276.7   276.8   276.8   276.7   276.5   276.3   276.0   275.8   275.5
  13      0.0   275.9   276.3   276.7   277.0   277.3   277.6   277.7   277.7   277.5   277.3   277.0   276.6   276.1     0.0
  14      0.0   275.7   276.7   277.3   277.8   278.2   278.6   278.7   278.7   278.5   278.2   277.7   277.1   276.0     0.0
  15      0.0     0.0   277.4   278.0   278.6   279.2   279.7   280.0   280.0   279.7   279.1   278.5   277.9     0.0     0.0
  16      0.0     0.0   277.4   278.6   279.4   280.3   281.1   281.5   281.5   281.0   280.2   279.2   278.2     0.0     0.0
  17      0.0     0.0     0.0   279.5   280.3   281.4   282.7   283.6   283.6   282.7   281.3   279.9   278.5     0.0     0.0
  18      0.0     0.0     0.0   279.5   280.7   282.3   284.7   286.6   286.6   285.0   282.3   280.5     0.0     0.0     0.0
  19      0.0     0.0     0.0     0.0     0.0     0.0   287.4   291.3   291.5   288.2     0.0     0.0     0.0     0.0     0.0
  20      0.0     0.0     0.0     0.0     0.0     0.0     0.0     0.0     0.0     0.0     0.0     0.0     0.0     0.0     0.0

 The following is a calculated (or recalculated) SUB-WT array after the initial steady-state stress period:
1
  PRECONSOL STRESS IN LAYER   3 AT END OF TIME STEP   1 IN STRESS PERIOD    1
  ---------------------------------------------------------------------------

           1       2       3       4       5       6       7       8       9      10      11      12      13      14      15
 ...........................................................................................................................
   1      0.0     0.0     0.0     0.0     0.0   320.4   320.3   320.1   320.3   320.5     0.0     0.0     0.0     0.0     0.0
   2      0.0     0.0     0.0     0.0   320.3   320.5   320.5   320.4   320.5   320.6   320.5   320.3     0.0     0.0     0.0
   3      0.0     0.0     0.0   320.6   320.7   320.8   320.9   320.9   320.9   320.9   320.8   320.6     0.0     0.0     0.0
   4      0.0     0.0     0.0   321.2   321.2   321.3   321.4   321.4   321.4   321.3   321.2   321.0     0.0     0.0     0.0
   5      0.0     0.0   321.7   321.7   321.8   321.9   321.9   322.0   321.9   321.9   321.8   321.6   321.6     0.0     0.0
   6      0.0     0.0   322.3   322.3   322.4   322.5   322.5   322.5   322.5   322.5   322.4   322.3   322.2   322.3     0.0
   7      0.0   322.9   322.9   323.0   323.0   323.1   323.1   323.2   323.1   323.1   323.1   323.0   322.9   322.9     0.0
   8      0.0   323.5   323.5   323.6   323.7   323.7   323.8   323.8   323.8   323.8   323.7   323.7   323.6   323.6     0.0
   9    324.4   324.2   324.2   324.2   324.3   324.4   324.5   324.5   324.5   324.5   324.4   324.4   324.3   324.4   324.7
  10    324.7   324.7   324.7   324.8   325.0   325.1   325.2   325.2   325.2   325.2   325.1   325.0   324.9   324.9   325.0
  11    324.9   325.1   325.3   325.5   325.6   325.8   325.9   326.0   326.0   325.9   325.8   325.6   325.5   325.4   325.3
  12      0.0   325.6   325.8   326.1   326.3   326.5   326.7   326.8   326.8   326.7   326.5   326.3   326.0   325.8   325.5
  13      0.0   326.0   326.3   326.7   327.0   327.3   327.6   327.7   327.7   327.5   327.3   327.0   326.6   326.2     0.0
  14      0.0   326.1   326.8   327.3   327.8   328.2   328.6   328.7   328.7   328.5   328.2   327.7   327.2   326.4     0.0
  15      0.0     0.0   327.5   328.0   328.6   329.2   329.7   330.0   330.0   329.7   329.1   328.5   328.1     0.0     0.0
  16      0.0     0.0   327.8   328.7   329.5   330.3   331.1   331.6   331.6   331.0   330.2   329.3   328.6     0.0     0.0
  17      0.0     0.0     0.0   329.6   330.3   331.4   332.7   333.6   333.7   332.8   331.3   330.1   329.0     0.0     0.0
  18      0.0     0.0     0.0   329.9   330.8   332.3   334.8   336.6   336.7   335.0   332.4   330.9     0.0     0.0     0.0
  19      0.0     0.0     0.0     0.0     0.0     0.0   337.8   341.4   341.6   338.3     0.0     0.0     0.0     0.0     0.0
  20      0.0     0.0     0.0     0.0     0.0     0.0     0.0     0.0     0.0     0.0     0.0     0.0     0.0     0.0     0.0

 The following is a calculated (or recalculated) SUB-WT array after the initial steady-state stress period:
1
  PRECONSOL STRESS IN LAYER   4 AT END OF TIME STEP   1 IN STRESS PERIOD    1
  ---------------------------------------------------------------------------

           1       2       3       4       5       6       7       8       9      10      11      12      13      14      15
 ...........................................................................................................................
   1      0.0     0.0     0.0     0.0     0.0   520.4   520.4   520.5   520.5   520.5     0.0     0.0     0.0     0.0     0.0
   2      0.0     0.0     0.0     0.0   520.7   520.6   520.6   520.7   520.6   520.6   520.6   520.6     0.0     0.0     0.0
   3      0.0     0.0     0.0   521.0   520.9   520.9   520.9   521.0   521.0   520.9   520.9   520.8     0.0     0.0     0.0
   4      0.0     0.0     0.0   521.3   521.3   521.4   521.4   521.4   521.4   521.4   521.3   521.3     0.0     0.0     0.0
   5      0.0     0.0   522.1   521.8   521.9   521.9   521.9   522.0   521.9   521.9   521.8   521.8   522.0     0.0     0.0
   6      0.0     0.0   522.4   522.4   522.4   522.5   522.5   522.5   522.5   522.5   522.4   522.4   522.4   522.6     0.0
   7      0.0   523.3   523.0   523.0   523.0   523.1   523.1   523.2   523.2   523.1   523.1   523.0   523.0   523.0     0.0
   8      0.0   523.6   523.6   523.6   523.7   523.7   523.8   523.8   523.8   523.8   523.7   523.7   523.7   523.7     0.0
   9    524.4   524.2   524.2   524.2   524.3   524.4   524.5   524.5   524.5   524.5   524.4   524.4   524.3   524.4   524.7
  10    524.7   524.7   524.8   524.9   525.0   525.1   525.2   525.2   525.2   525.2   525.1   525.0   524.9   524.9   525.0
  11    524.9   525.1   525.3   525.5   525.6   525.8   525.9   526.0   526.0   525.9   525.8   525.6   525.5   525.4   525.3
  12      0.0   525.6   525.8   526.1   526.3   526.5   526.7   526.8   526.8   526.7   526.5   526.3   526.0   525.8   525.5
  13      0.0   526.1   526.3   526.7   527.0   527.3   527.6   527.7   527.7   527.6   527.3   527.0   526.6   526.3     0.0
  14      0.0   526.4   526.9   527.3   527.8   528.2   528.6   528.8   528.7   528.5   528.2   527.7   527.3   526.7     0.0
  15      0.0     0.0   527.6   528.1   528.6   529.2   529.7   530.0   530.0   529.7   529.2   528.6   528.2     0.0     0.0
  16      0.0     0.0   528.1   528.8   529.5   530.3   531.1   531.6   531.6   531.1   530.3   529.4   529.0     0.0     0.0
  17      0.0     0.0     0.0   529.7   530.4   531.4   532.8   533.7   533.7   532.8   531.4   530.3   529.4     0.0     0.0
  18      0.0     0.0     0.0   530.3   530.9   532.4   535.0   536.7   536.8   535.1   532.5   531.3     0.0     0.0     0.0
  19      0.0     0.0     0.0     0.0     0.0     0.0   538.2   541.6   541.7   538.3     0.0     0.0     0.0     0.0     0.0
  20      0.0     0.0     0.0     0.0     0.0     0.0     0.0     0.0     0.0     0.0     0.0     0.0     0.0     0.0     0.0
 The following array is for system   1 of compressible interbeds:
1
   EQUIVALENT Sske IN LAYER   1 AT END OF TIME STEP   1 IN STRESS PERIOD    1
  ---------------------------------------------------------------------------

            1           2           3           4           5           6           7           8           9          10
           11          12          13          14          15
 ........................................................................................................................
   1    0.000       0.000       0.000       0.000       0.000      0.4039E-04  0.4053E-04  0.4111E-04  0.4046E-04  0.4025E-04
        0.000       0.000       0.000       0.000       0.000    
   2    0.000       0.000       0.000       0.000      0.4097E-04  0.4032E-04  0.4030E-04  0.4077E-04  0.4021E-04  0.4010E-04
       0.4026E-04  0.4101E-04   0.000       0.000       0.000    
   3    0.000       0.000       0.000      0.4056E-04  0.4010E-04  0.3983E-04  0.3976E-04  0.3981E-04  0.3971E-04  0.3972E-04
       0.3989E-04  0.4023E-04   0.000       0.000       0.000    
   4    0.000       0.000       0.000      0.3953E-04  0.3937E-04  0.3924E-04  0.3917E-04  0.3916E-04  0.3916E-04  0.3923E-04
       0.3947E-04  0.4011E-04   0.000       0.000       0.000    
   5    0.000       0.000      0.3932E-04  0.3889E-04  0.3872E-04  0.3862E-04  0.3856E-04  0.3855E-04  0.3857E-04  0.3864E-04
       0.3880E-04  0.3907E-04  0.3944E-04   0.000       0.000    
   6    0.000       0.000      0.3831E-04  0.3818E-04  0.3807E-04  0.3799E-04  0.3794E-04  0.3793E-04  0.3794E-04  0.3800E-04
       0.3810E-04  0.3824E-04  0.3841E-04  0.3871E-04   0.000    
   7    0.000      0.3802E-04  0.3766E-04  0.3752E-04  0.3743E-04  0.3736E-04  0.3731E-04  0.3730E-04  0.3731E-04  0.3735E-04
       0.3741E-04  0.3749E-04  0.3757E-04  0.3764E-04   0.000    
   8    0.000      0.3703E-04  0.3695E-04  0.3687E-04  0.3679E-04  0.3673E-04  0.3668E-04  0.3666E-04  0.3666E-04  0.3669E-04
       0.3674E-04  0.3679E-04  0.3683E-04  0.3684E-04   0.000    
   9   0.3607E-04  0.3630E-04  0.3631E-04  0.3625E-04  0.3617E-04  0.3610E-04  0.3604E-04  0.3601E-04  0.3602E-04  0.3604E-04
       0.3609E-04  0.3614E-04  0.3617E-04  0.3611E-04  0.3585E-04
  10   0.3585E-04  0.3584E-04  0.3578E-04  0.3568E-04  0.3557E-04  0.3548E-04  0.3540E-04  0.3536E-04  0.3536E-04  0.3540E-04
       0.3546E-04  0.3554E-04  0.3560E-04  0.3563E-04  0.3558E-04
  11   0.3564E-04  0.3544E-04  0.3529E-04  0.3514E-04  0.3498E-04  0.3485E-04  0.3475E-04  0.3469E-04  0.3470E-04  0.3475E-04
       0.3485E-04  0.3497E-04  0.3510E-04  0.3522E-04  0.3529E-04
  12    0.000      0.3500E-04  0.3483E-04  0.3461E-04  0.3439E-04  0.3421E-04  0.3407E-04  0.3400E-04  0.3400E-04  0.3408E-04
       0.3422E-04  0.3441E-04  0.3463E-04  0.3486E-04  0.3507E-04
  13    0.000      0.3478E-04  0.3444E-04  0.3410E-04  0.3380E-04  0.3354E-04  0.3336E-04  0.3326E-04  0.3326E-04  0.3337E-04
       0.3358E-04  0.3385E-04  0.3419E-04  0.3455E-04   0.000    
  14    0.000      0.3502E-04  0.3410E-04  0.3359E-04  0.3319E-04  0.3285E-04  0.3258E-04  0.3244E-04  0.3245E-04  0.3261E-04
       0.3289E-04  0.3327E-04  0.3377E-04  0.3473E-04   0.000    
  15    0.000       0.000      0.3352E-04  0.3304E-04  0.3255E-04  0.3210E-04  0.3173E-04  0.3152E-04  0.3153E-04  0.3176E-04
       0.3216E-04  0.3263E-04  0.3307E-04   0.000       0.000    
  16    0.000       0.000      0.3357E-04  0.3257E-04  0.3193E-04  0.3133E-04  0.3078E-04  0.3045E-04  0.3045E-04  0.3080E-04
       0.3140E-04  0.3210E-04  0.3297E-04   0.000       0.000    
  17    0.000       0.000       0.000      0.3190E-04  0.3133E-04  0.3056E-04  0.2970E-04  0.2914E-04  0.2913E-04  0.2969E-04
       0.3064E-04  0.3160E-04  0.3272E-04   0.000       0.000    
  18    0.000       0.000       0.000      0.3195E-04  0.3102E-04  0.2997E-04  0.2847E-04  0.2744E-04  0.2740E-04  0.2834E-04
       0.2999E-04  0.3124E-04   0.000       0.000       0.000    
  19    0.000       0.000       0.000       0.000       0.000       0.000      0.2706E-04  0.2511E-04  0.2503E-04  0.2658E-04
        0.000       0.000       0.000       0.000       0.000    
  20    0.000       0.000       0.000       0.000       0.000       0.000       0.000      0.1249E-10  0.1249E-10   0.000    
        0.000       0.000       0.000       0.000       0.000    
 The following array is for system   1 of compressible interbeds:
1
   EQUIVALENT Sskv IN LAYER   1 AT END OF TIME STEP   1 IN STRESS PERIOD    1
  ---------------------------------------------------------------------------

            1           2           3           4           5           6           7           8           9          10
           11          12          13          14          15
 ........................................................................................................................
   1    0.000       0.000       0.000       0.000       0.000      0.1010E-02  0.1013E-02  0.1028E-02  0.1012E-02  0.1006E-02
        0.000       0.000       0.000       0.000       0.000    
   2    0.000       0.000       0.000       0.000      0.1024E-02  0.1008E-02  0.1007E-02  0.1019E-02  0.1005E-02  0.1002E-02
       0.1007E-02  0.1025E-02   0.000       0.000       0.000    
   3    0.000       0.000       0.000      0.1014E-02  0.1003E-02  0.9958E-03  0.9940E-03  0.9952E-03  0.9928E-03  0.9930E-03
       0.9973E-03  0.1006E-02   0.000       0.000       0.000    
   4    0.000       0.000       0.000      0.9883E-03  0.9844E-03  0.9809E-03  0.9793E-03  0.9790E-03  0.9790E-03  0.9808E-03
       0.9866E-03  0.1003E-02   0.000       0.000       0.000    
   5    0.000       0.000      0.9829E-03  0.9722E-03  0.9681E-03  0.9655E-03  0.9641E-03  0.9637E-03  0.9641E-03  0.9660E-03
       0.9699E-03  0.9767E-03  0.9860E-03   0.000       0.000    
   6    0.000       0.000      0.9579E-03  0.9545E-03  0.9518E-03  0.9498E-03  0.9486E-03  0.9482E-03  0.9486E-03  0.9500E-03
       0.9525E-03  0.9560E-03  0.9603E-03  0.9678E-03   0.000    
   7    0.000      0.9504E-03  0.9414E-03  0.9380E-03  0.9357E-03  0.9340E-03  0.9329E-03  0.9324E-03  0.9327E-03  0.9337E-03
       0.9353E-03  0.9373E-03  0.9393E-03  0.9411E-03   0.000    
   8    0.000      0.9258E-03  0.9238E-03  0.9218E-03  0.9199E-03  0.9182E-03  0.9170E-03  0.9165E-03  0.9166E-03  0.9173E-03
       0.9185E-03  0.9199E-03  0.9208E-03  0.9211E-03   0.000    
   9   0.9017E-03  0.9075E-03  0.9078E-03  0.9063E-03  0.9044E-03  0.9025E-03  0.9011E-03  0.9004E-03  0.9004E-03  0.9011E-03
       0.9023E-03  0.9036E-03  0.9042E-03  0.9028E-03  0.8962E-03
  10   0.8962E-03  0.8959E-03  0.8944E-03  0.8920E-03  0.8893E-03  0.8869E-03  0.8850E-03  0.8841E-03  0.8841E-03  0.8850E-03
       0.8866E-03  0.8885E-03  0.8901E-03  0.8907E-03  0.8896E-03
  11   0.8910E-03  0.8860E-03  0.8823E-03  0.8784E-03  0.8746E-03  0.8712E-03  0.8687E-03  0.8674E-03  0.8674E-03  0.8687E-03
       0.8712E-03  0.8743E-03  0.8776E-03  0.8804E-03  0.8822E-03
  12    0.000      0.8751E-03  0.8708E-03  0.8653E-03  0.8599E-03  0.8552E-03  0.8518E-03  0.8499E-03  0.8500E-03  0.8520E-03
       0.8556E-03  0.8604E-03  0.8659E-03  0.8715E-03  0.8767E-03
  13    0.000      0.8694E-03  0.8610E-03  0.8526E-03  0.8450E-03  0.8386E-03  0.8339E-03  0.8314E-03  0.8315E-03  0.8343E-03
       0.8394E-03  0.8463E-03  0.8547E-03  0.8637E-03   0.000    
  14    0.000      0.8755E-03  0.8525E-03  0.8399E-03  0.8297E-03  0.8211E-03  0.8146E-03  0.8110E-03  0.8112E-03  0.8152E-03
       0.8223E-03  0.8318E-03  0.8443E-03  0.8682E-03   0.000    
  15    0.000       0.000      0.8380E-03  0.8260E-03  0.8138E-03  0.8026E-03  0.7934E-03  0.7881E-03  0.7883E-03  0.7940E-03
       0.8039E-03  0.8158E-03  0.8267E-03   0.000       0.000    
  16    0.000       0.000      0.8394E-03  0.8141E-03  0.7982E-03  0.7832E-03  0.7696E-03  0.7613E-03  0.7613E-03  0.7701E-03
       0.7850E-03  0.8026E-03  0.8242E-03   0.000       0.000    
  17    0.000       0.000       0.000      0.7974E-03  0.7833E-03  0.7640E-03  0.7426E-03  0.7285E-03  0.7282E-03  0.7423E-03
       0.7659E-03  0.7900E-03  0.8181E-03   0.000       0.000    
  18    0.000       0.000       0.000      0.7987E-03  0.7756E-03  0.7492E-03  0.7117E-03  0.6861E-03  0.6850E-03  0.7086E-03
       0.7497E-03  0.7809E-03   0.000       0.000       0.000    
  19    0.000       0.000       0.000       0.000       0.000       0.000      0.6765E-03  0.6277E-03  0.6257E-03  0.6645E-03
        0.000       0.000       0.000       0.000       0.000    
  20    0.000       0.000       0.000       0.000       0.000       0.000       0.000      0.3122E-09  0.3122E-09   0.000    
        0.000       0.000       0.000       0.000       0.000    
 The following array is for system   2 of compressible interbeds:
1
   EQUIVALENT Sske IN LAYER   2 AT END OF TIME STEP   1 IN STRESS PERIOD    1
  ---------------------------------------------------------------------------

            1           2           3           4           5           6           7           8           9          10
           11          12          13          14          15
 ........................................................................................................................
   1    0.000       0.000       0.000       0.000       0.000      0.1323E-04  0.1324E-04  0.1327E-04  0.1324E-04  0.1323E-04
        0.000       0.000       0.000       0.000       0.000    
   2    0.000       0.000       0.000       0.000      0.1326E-04  0.1323E-04  0.1323E-04  0.1325E-04  0.1322E-04  0.1322E-04
       0.1323E-04  0.1326E-04   0.000       0.000       0.000    
   3    0.000       0.000       0.000      0.1324E-04  0.1322E-04  0.1320E-04  0.1319E-04  0.1320E-04  0.1319E-04  0.1319E-04
       0.1320E-04  0.1322E-04   0.000       0.000       0.000    
   4    0.000       0.000       0.000      0.1318E-04  0.1317E-04  0.1316E-04  0.1316E-04  0.1316E-04  0.1316E-04  0.1316E-04
       0.1318E-04  0.1321E-04   0.000       0.000       0.000    
   5    0.000       0.000      0.1316E-04  0.1314E-04  0.1313E-04  0.1312E-04  0.1312E-04  0.1312E-04  0.1312E-04  0.1312E-04
       0.1313E-04  0.1315E-04  0.1317E-04   0.000       0.000    
   6    0.000       0.000      0.1310E-04  0.1309E-04  0.1308E-04  0.1308E-04  0.1307E-04  0.1307E-04  0.1307E-04  0.1308E-04
       0.1308E-04  0.1309E-04  0.1311E-04  0.1312E-04   0.000    
   7    0.000      0.1307E-04  0.1305E-04  0.1304E-04  0.1304E-04  0.1303E-04  0.1303E-04  0.1303E-04  0.1303E-04  0.1303E-04
       0.1304E-04  0.1304E-04  0.1305E-04  0.1305E-04   0.000    
   8    0.000      0.1301E-04  0.1300E-04  0.1300E-04  0.1299E-04  0.1299E-04  0.1298E-04  0.1298E-04  0.1298E-04  0.1298E-04
       0.1299E-04  0.1299E-04  0.1300E-04  0.1300E-04   0.000    
   9   0.1294E-04  0.1296E-04  0.1296E-04  0.1295E-04  0.1295E-04  0.1294E-04  0.1294E-04  0.1293E-04  0.1293E-04  0.1294E-04
       0.1294E-04  0.1294E-04  0.1295E-04  0.1294E-04  0.1292E-04
  10   0.1292E-04  0.1292E-04  0.1292E-04  0.1291E-04  0.1290E-04  0.1289E-04  0.1289E-04  0.1288E-04  0.1288E-04  0.1289E-04
       0.1289E-04  0.1290E-04  0.1290E-04  0.1291E-04  0.1290E-04
  11   0.1291E-04  0.1289E-04  0.1288E-04  0.1287E-04  0.1286E-04  0.1284E-04  0.1284E-04  0.1283E-04  0.1283E-04  0.1284E-04
       0.1284E-04  0.1285E-04  0.1286E-04  0.1287E-04  0.1288E-04
  12    0.000      0.1286E-04  0.1284E-04  0.1283E-04  0.1281E-04  0.1279E-04  0.1278E-04  0.1278E-04  0.1278E-04  0.1278E-04
       0.1279E-04  0.1281E-04  0.1283E-04  0.1285E-04  0.1286E-04
  13    0.000      0.1284E-04  0.1281E-04  0.1278E-04  0.1276E-04  0.1274E-04  0.1272E-04  0.1271E-04  0.1271E-04  0.1272E-04
       0.1274E-04  0.1276E-04  0.1279E-04  0.1282E-04   0.000    
  14    0.000      0.1285E-04  0.1278E-04  0.1274E-04  0.1271E-04  0.1268E-04  0.1266E-04  0.1264E-04  0.1264E-04  0.1266E-04
       0.1268E-04  0.1271E-04  0.1276E-04  0.1283E-04   0.000    
  15    0.000       0.000      0.1274E-04  0.1270E-04  0.1265E-04  0.1261E-04  0.1258E-04  0.1256E-04  0.1256E-04  0.1258E-04
       0.1262E-04  0.1266E-04  0.1270E-04   0.000       0.000    
  16    0.000       0.000      0.1273E-04  0.1265E-04  0.1260E-04  0.1254E-04  0.1249E-04  0.1246E-04  0.1246E-04  0.1249E-04
       0.1255E-04  0.1261E-04  0.1268E-04   0.000       0.000    
  17    0.000       0.000       0.000      0.1259E-04  0.1254E-04  0.1247E-04  0.1238E-04  0.1233E-04  0.1232E-04  0.1238E-04
       0.1248E-04  0.1257E-04  0.1266E-04   0.000       0.000    
  18    0.000       0.000       0.000      0.1259E-04  0.1251E-04  0.1241E-04  0.1225E-04  0.1214E-04  0.1213E-04  0.1224E-04
       0.1241E-04  0.1253E-04   0.000       0.000       0.000    
  19    0.000       0.000       0.000       0.000       0.000       0.000      0.1209E-04  0.1185E-04  0.1184E-04  0.1204E-04
        0.000       0.000       0.000       0.000       0.000    
  20    0.000       0.000       0.000       0.000       0.000       0.000       0.000      0.6541E-11  0.6541E-11   0.000    
        0.000       0.000       0.000       0.000       0.000    
 The following array is for system   2 of compressible interbeds:
1
   EQUIVALENT Sskv IN LAYER   2 AT END OF TIME STEP   1 IN STRESS PERIOD    1
  ---------------------------------------------------------------------------

            1           2           3           4           5           6           7           8           9          10
           11          12          13          14          15
 ........................................................................................................................
   1    0.000       0.000       0.000       0.000       0.000      0.3309E-03  0.3311E-03  0.3318E-03  0.3310E-03  0.3307E-03
        0.000       0.000       0.000       0.000       0.000    
   2    0.000       0.000       0.000       0.000      0.3316E-03  0.3308E-03  0.3307E-03  0.3313E-03  0.3306E-03  0.3304E-03
       0.3307E-03  0.3316E-03   0.000       0.000       0.000    
   3    0.000       0.000       0.000      0.3309E-03  0.3304E-03  0.3300E-03  0.3299E-03  0.3299E-03  0.3298E-03  0.3298E-03
       0.3301E-03  0.3306E-03   0.000       0.000       0.000    
   4    0.000       0.000       0.000      0.3295E-03  0.3292E-03  0.3290E-03  0.3289E-03  0.3289E-03  0.3289E-03  0.3290E-03
       0.3294E-03  0.3302E-03   0.000       0.000       0.000    
   5    0.000       0.000      0.3289E-03  0.3284E-03  0.3282E-03  0.3280E-03  0.3279E-03  0.3279E-03  0.3279E-03  0.3280E-03
       0.3283E-03  0.3287E-03  0.3291E-03   0.000       0.000    
   6    0.000       0.000      0.3275E-03  0.3273E-03  0.3271E-03  0.3269E-03  0.3268E-03  0.3268E-03  0.3268E-03  0.3269E-03
       0.3271E-03  0.3274E-03  0.3276E-03  0.3279E-03   0.000    
   7    0.000      0.3268E-03  0.3263E-03  0.3261E-03  0.3259E-03  0.3258E-03  0.3257E-03  0.3257E-03  0.3257E-03  0.3258E-03
       0.3259E-03  0.3261E-03  0.3262E-03  0.3263E-03   0.000    
   8    0.000      0.3252E-03  0.3251E-03  0.3249E-03  0.3248E-03  0.3247E-03  0.3246E-03  0.3246E-03  0.3246E-03  0.3246E-03
       0.3247E-03  0.3248E-03  0.3249E-03  0.3249E-03   0.000    
   9   0.3235E-03  0.3239E-03  0.3239E-03  0.3238E-03  0.3237E-03  0.3235E-03  0.3234E-03  0.3234E-03  0.3234E-03  0.3234E-03
       0.3235E-03  0.3236E-03  0.3237E-03  0.3236E-03  0.3230E-03
  10   0.3230E-03  0.3230E-03  0.3229E-03  0.3227E-03  0.3225E-03  0.3223E-03  0.3222E-03  0.3221E-03  0.3221E-03  0.3222E-03
       0.3223E-03  0.3225E-03  0.3226E-03  0.3226E-03  0.3225E-03
  11   0.3227E-03  0.3223E-03  0.3220E-03  0.3217E-03  0.3214E-03  0.3211E-03  0.3209E-03  0.3208E-03  0.3208E-03  0.3209E-03
       0.3211E-03  0.3214E-03  0.3216E-03  0.3218E-03  0.3220E-03
  12    0.000      0.3214E-03  0.3211E-03  0.3206E-03  0.3202E-03  0.3198E-03  0.3195E-03  0.3194E-03  0.3194E-03  0.3196E-03
       0.3199E-03  0.3202E-03  0.3207E-03  0.3211E-03  0.3215E-03
  13    0.000      0.3210E-03  0.3203E-03  0.3196E-03  0.3190E-03  0.3185E-03  0.3181E-03  0.3178E-03  0.3179E-03  0.3181E-03
       0.3185E-03  0.3191E-03  0.3198E-03  0.3205E-03   0.000    
  14    0.000      0.3213E-03  0.3196E-03  0.3186E-03  0.3177E-03  0.3170E-03  0.3164E-03  0.3161E-03  0.3161E-03  0.3164E-03
       0.3171E-03  0.3179E-03  0.3189E-03  0.3207E-03   0.000    
  15    0.000       0.000      0.3184E-03  0.3174E-03  0.3163E-03  0.3153E-03  0.3145E-03  0.3140E-03  0.3140E-03  0.3145E-03
       0.3154E-03  0.3165E-03  0.3174E-03   0.000       0.000    
  16    0.000       0.000      0.3183E-03  0.3163E-03  0.3149E-03  0.3135E-03  0.3122E-03  0.3114E-03  0.3114E-03  0.3123E-03
       0.3137E-03  0.3153E-03  0.3170E-03   0.000       0.000    
  17    0.000       0.000       0.000      0.3148E-03  0.3135E-03  0.3117E-03  0.3096E-03  0.3081E-03  0.3081E-03  0.3095E-03
       0.3119E-03  0.3142E-03  0.3165E-03   0.000       0.000    
  18    0.000       0.000       0.000      0.3148E-03  0.3128E-03  0.3102E-03  0.3063E-03  0.3035E-03  0.3034E-03  0.3060E-03
       0.3103E-03  0.3131E-03   0.000       0.000       0.000    
  19    0.000       0.000       0.000       0.000       0.000       0.000      0.3022E-03  0.2964E-03  0.2961E-03  0.3010E-03
        0.000       0.000       0.000       0.000       0.000    
  20    0.000       0.000       0.000       0.000       0.000       0.000       0.000      0.1635E-09  0.1635E-09   0.000    
        0.000       0.000       0.000       0.000       0.000    
 The following array is for system   3 of compressible interbeds:
1
   EQUIVALENT Sske IN LAYER   3 AT END OF TIME STEP   1 IN STRESS PERIOD    1
  ---------------------------------------------------------------------------

            1           2           3           4           5           6           7           8           9          10
           11          12          13          14          15
 ........................................................................................................................
   1    0.000       0.000       0.000       0.000       0.000      0.8511E-05  0.8513E-05  0.8518E-05  0.8512E-05  0.8508E-05
        0.000       0.000       0.000       0.000       0.000    
   2    0.000       0.000       0.000       0.000      0.8514E-05  0.8508E-05  0.8508E-05  0.8511E-05  0.8506E-05  0.8504E-05
       0.8506E-05  0.8514E-05   0.000       0.000       0.000    
   3    0.000       0.000       0.000      0.8503E-05  0.8501E-05  0.8497E-05  0.8495E-05  0.8496E-05  0.8494E-05  0.8495E-05
       0.8498E-05  0.8504E-05   0.000       0.000       0.000    
   4    0.000       0.000       0.000      0.8487E-05  0.8484E-05  0.8482E-05  0.8480E-05  0.8480E-05  0.8480E-05  0.8482E-05
       0.8486E-05  0.8493E-05   0.000       0.000       0.000    
   5    0.000       0.000      0.8471E-05  0.8470E-05  0.8467E-05  0.8465E-05  0.8464E-05  0.8463E-05  0.8464E-05  0.8466E-05
       0.8469E-05  0.8473E-05  0.8473E-05   0.000       0.000    
   6    0.000       0.000      0.8453E-05  0.8452E-05  0.8449E-05  0.8447E-05  0.8446E-05  0.8446E-05  0.8446E-05  0.8448E-05
       0.8450E-05  0.8453E-05  0.8455E-05  0.8454E-05   0.000    
   7    0.000      0.8435E-05  0.8435E-05  0.8433E-05  0.8431E-05  0.8429E-05  0.8428E-05  0.8427E-05  0.8428E-05  0.8429E-05
       0.8430E-05  0.8432E-05  0.8434E-05  0.8434E-05   0.000    
   8    0.000      0.8416E-05  0.8416E-05  0.8414E-05  0.8412E-05  0.8410E-05  0.8409E-05  0.8408E-05  0.8408E-05  0.8409E-05
       0.8410E-05  0.8412E-05  0.8413E-05  0.8413E-05   0.000    
   9   0.8389E-05  0.8396E-05  0.8397E-05  0.8395E-05  0.8393E-05  0.8391E-05  0.8389E-05  0.8388E-05  0.8388E-05  0.8389E-05
       0.8390E-05  0.8392E-05  0.8393E-05  0.8391E-05  0.8383E-05
  10   0.8382E-05  0.8382E-05  0.8380E-05  0.8377E-05  0.8374E-05  0.8371E-05  0.8368E-05  0.8367E-05  0.8367E-05  0.8368E-05
       0.8370E-05  0.8373E-05  0.8375E-05  0.8375E-05  0.8374E-05
  11   0.8376E-05  0.8369E-05  0.8364E-05  0.8359E-05  0.8354E-05  0.8350E-05  0.8347E-05  0.8345E-05  0.8345E-05  0.8347E-05
       0.8350E-05  0.8354E-05  0.8358E-05  0.8362E-05  0.8364E-05
  12    0.000      0.8354E-05  0.8349E-05  0.8342E-05  0.8334E-05  0.8328E-05  0.8323E-05  0.8321E-05  0.8321E-05  0.8324E-05
       0.8329E-05  0.8335E-05  0.8342E-05  0.8350E-05  0.8357E-05
  13    0.000      0.8345E-05  0.8335E-05  0.8324E-05  0.8314E-05  0.8305E-05  0.8298E-05  0.8294E-05  0.8295E-05  0.8299E-05
       0.8306E-05  0.8315E-05  0.8326E-05  0.8337E-05   0.000    
  14    0.000      0.8342E-05  0.8321E-05  0.8306E-05  0.8292E-05  0.8279E-05  0.8269E-05  0.8264E-05  0.8264E-05  0.8270E-05
       0.8281E-05  0.8294E-05  0.8310E-05  0.8332E-05   0.000    
  15    0.000       0.000      0.8301E-05  0.8285E-05  0.8268E-05  0.8251E-05  0.8237E-05  0.8228E-05  0.8229E-05  0.8238E-05
       0.8253E-05  0.8270E-05  0.8284E-05   0.000       0.000    
  16    0.000       0.000      0.8292E-05  0.8266E-05  0.8243E-05  0.8220E-05  0.8198E-05  0.8184E-05  0.8184E-05  0.8199E-05
       0.8223E-05  0.8248E-05  0.8269E-05   0.000       0.000    
  17    0.000       0.000       0.000      0.8240E-05  0.8219E-05  0.8188E-05  0.8152E-05  0.8126E-05  0.8126E-05  0.8151E-05
       0.8190E-05  0.8226E-05  0.8258E-05   0.000       0.000    
  18    0.000       0.000       0.000      0.8232E-05  0.8205E-05  0.8162E-05  0.8093E-05  0.8044E-05  0.8043E-05  0.8089E-05
       0.8161E-05  0.8203E-05   0.000       0.000       0.000    
  19    0.000       0.000       0.000       0.000       0.000       0.000      0.8013E-05  0.7916E-05  0.7913E-05  0.8001E-05
        0.000       0.000       0.000       0.000       0.000    
  20    0.000       0.000       0.000       0.000       0.000       0.000       0.000      0.4431E-11  0.4431E-11   0.000    
        0.000       0.000       0.000       0.000       0.000    
 The following array is for system   3 of compressible interbeds:
1
   EQUIVALENT Sskv IN LAYER   3 AT END OF TIME STEP   1 IN STRESS PERIOD    1
  ---------------------------------------------------------------------------

            1           2           3           4           5           6           7           8           9          10
           11          12          13          14          15
 ........................................................................................................................
   1    0.000       0.000       0.000       0.000       0.000      0.2128E-03  0.2128E-03  0.2129E-03  0.2128E-03  0.2127E-03
        0.000       0.000       0.000       0.000       0.000    
   2    0.000       0.000       0.000       0.000      0.2128E-03  0.2127E-03  0.2127E-03  0.2128E-03  0.2126E-03  0.2126E-03
       0.2127E-03  0.2129E-03   0.000       0.000       0.000    
   3    0.000       0.000       0.000      0.2126E-03  0.2125E-03  0.2124E-03  0.2124E-03  0.2124E-03  0.2124E-03  0.2124E-03
       0.2125E-03  0.2126E-03   0.000       0.000       0.000    
   4    0.000       0.000       0.000      0.2122E-03  0.2121E-03  0.2120E-03  0.2120E-03  0.2120E-03  0.2120E-03  0.2120E-03
       0.2122E-03  0.2123E-03   0.000       0.000       0.000    
   5    0.000       0.000      0.2118E-03  0.2117E-03  0.2117E-03  0.2116E-03  0.2116E-03  0.2116E-03  0.2116E-03  0.2116E-03
       0.2117E-03  0.2118E-03  0.2118E-03   0.000       0.000    
   6    0.000       0.000      0.2113E-03  0.2113E-03  0.2112E-03  0.2112E-03  0.2112E-03  0.2111E-03  0.2112E-03  0.2112E-03
       0.2113E-03  0.2113E-03  0.2114E-03  0.2113E-03   0.000    
   7    0.000      0.2109E-03  0.2109E-03  0.2108E-03  0.2108E-03  0.2107E-03  0.2107E-03  0.2107E-03  0.2107E-03  0.2107E-03
       0.2108E-03  0.2108E-03  0.2108E-03  0.2109E-03   0.000    
   8    0.000      0.2104E-03  0.2104E-03  0.2104E-03  0.2103E-03  0.2103E-03  0.2102E-03  0.2102E-03  0.2102E-03  0.2102E-03
       0.2103E-03  0.2103E-03  0.2103E-03  0.2103E-03   0.000    
   9   0.2097E-03  0.2099E-03  0.2099E-03  0.2099E-03  0.2098E-03  0.2098E-03  0.2097E-03  0.2097E-03  0.2097E-03  0.2097E-03
       0.2098E-03  0.2098E-03  0.2098E-03  0.2098E-03  0.2096E-03
  10   0.2096E-03  0.2096E-03  0.2095E-03  0.2094E-03  0.2093E-03  0.2093E-03  0.2092E-03  0.2092E-03  0.2092E-03  0.2092E-03
       0.2093E-03  0.2093E-03  0.2094E-03  0.2094E-03  0.2094E-03
  11   0.2094E-03  0.2092E-03  0.2091E-03  0.2090E-03  0.2089E-03  0.2087E-03  0.2087E-03  0.2086E-03  0.2086E-03  0.2087E-03
       0.2087E-03  0.2088E-03  0.2090E-03  0.2090E-03  0.2091E-03
  12    0.000      0.2089E-03  0.2087E-03  0.2085E-03  0.2084E-03  0.2082E-03  0.2081E-03  0.2080E-03  0.2080E-03  0.2081E-03
       0.2082E-03  0.2084E-03  0.2086E-03  0.2087E-03  0.2089E-03
  13    0.000      0.2086E-03  0.2084E-03  0.2081E-03  0.2078E-03  0.2076E-03  0.2074E-03  0.2074E-03  0.2074E-03  0.2075E-03
       0.2076E-03  0.2079E-03  0.2082E-03  0.2084E-03   0.000    
  14    0.000      0.2085E-03  0.2080E-03  0.2076E-03  0.2073E-03  0.2070E-03  0.2067E-03  0.2066E-03  0.2066E-03  0.2068E-03
       0.2070E-03  0.2074E-03  0.2077E-03  0.2083E-03   0.000    
  15    0.000       0.000      0.2075E-03  0.2071E-03  0.2067E-03  0.2063E-03  0.2059E-03  0.2057E-03  0.2057E-03  0.2059E-03
       0.2063E-03  0.2067E-03  0.2071E-03   0.000       0.000    
  16    0.000       0.000      0.2073E-03  0.2066E-03  0.2061E-03  0.2055E-03  0.2050E-03  0.2046E-03  0.2046E-03  0.2050E-03
       0.2056E-03  0.2062E-03  0.2067E-03   0.000       0.000    
  17    0.000       0.000       0.000      0.2060E-03  0.2055E-03  0.2047E-03  0.2038E-03  0.2032E-03  0.2031E-03  0.2038E-03
       0.2048E-03  0.2056E-03  0.2064E-03   0.000       0.000    
  18    0.000       0.000       0.000      0.2058E-03  0.2051E-03  0.2041E-03  0.2023E-03  0.2011E-03  0.2011E-03  0.2022E-03
       0.2040E-03  0.2051E-03   0.000       0.000       0.000    
  19    0.000       0.000       0.000       0.000       0.000       0.000      0.2003E-03  0.1979E-03  0.1978E-03  0.2000E-03
        0.000       0.000       0.000       0.000       0.000    
  20    0.000       0.000       0.000       0.000       0.000       0.000       0.000      0.1108E-09  0.1108E-09   0.000    
        0.000       0.000       0.000       0.000       0.000    
 The following array is for system   4 of compressible interbeds:
1
   EQUIVALENT Sske IN LAYER   4 AT END OF TIME STEP   1 IN STRESS PERIOD    1
  ---------------------------------------------------------------------------

            1           2           3           4           5           6           7           8           9          10
           11          12          13          14          15
 ........................................................................................................................
   1    0.000       0.000       0.000       0.000       0.000      0.5886E-05  0.5886E-05  0.5885E-05  0.5885E-05  0.5885E-05
        0.000       0.000       0.000       0.000       0.000    
   2    0.000       0.000       0.000       0.000      0.5882E-05  0.5884E-05  0.5883E-05  0.5882E-05  0.5883E-05  0.5883E-05
       0.5883E-05  0.5883E-05   0.000       0.000       0.000    
   3    0.000       0.000       0.000      0.5877E-05  0.5879E-05  0.5879E-05  0.5878E-05  0.5878E-05  0.5878E-05  0.5878E-05
       0.5879E-05  0.5880E-05   0.000       0.000       0.000    
   4    0.000       0.000       0.000      0.5873E-05  0.5873E-05  0.5872E-05  0.5872E-05  0.5871E-05  0.5871E-05  0.5872E-05
       0.5873E-05  0.5873E-05   0.000       0.000       0.000    
   5    0.000       0.000      0.5862E-05  0.5865E-05  0.5865E-05  0.5864E-05  0.5864E-05  0.5864E-05  0.5864E-05  0.5865E-05
       0.5866E-05  0.5866E-05  0.5863E-05   0.000       0.000    
   6    0.000       0.000      0.5857E-05  0.5857E-05  0.5857E-05  0.5856E-05  0.5855E-05  0.5855E-05  0.5855E-05  0.5856E-05
       0.5857E-05  0.5858E-05  0.5857E-05  0.5854E-05   0.000    
   7    0.000      0.5845E-05  0.5849E-05  0.5849E-05  0.5848E-05  0.5847E-05  0.5847E-05  0.5846E-05  0.5846E-05  0.5847E-05
       0.5848E-05  0.5848E-05  0.5849E-05  0.5848E-05   0.000    
   8    0.000      0.5840E-05  0.5840E-05  0.5840E-05  0.5839E-05  0.5838E-05  0.5837E-05  0.5837E-05  0.5837E-05  0.5838E-05
       0.5838E-05  0.5839E-05  0.5839E-05  0.5839E-05   0.000    
   9   0.5828E-05  0.5831E-05  0.5832E-05  0.5831E-05  0.5830E-05  0.5829E-05  0.5828E-05  0.5827E-05  0.5827E-05  0.5828E-05
       0.5829E-05  0.5829E-05  0.5830E-05  0.5829E-05  0.5825E-05
  10   0.5825E-05  0.5824E-05  0.5824E-05  0.5822E-05  0.5821E-05  0.5819E-05  0.5818E-05  0.5817E-05  0.5817E-05  0.5818E-05
       0.5819E-05  0.5820E-05  0.5821E-05  0.5821E-05  0.5821E-05
  11   0.5822E-05  0.5818E-05  0.5816E-05  0.5814E-05  0.5811E-05  0.5809E-05  0.5807E-05  0.5807E-05  0.5807E-05  0.5807E-05
       0.5809E-05  0.5811E-05  0.5813E-05  0.5815E-05  0.5816E-05
  12    0.000      0.5811E-05  0.5808E-05  0.5805E-05  0.5802E-05  0.5798E-05  0.5796E-05  0.5795E-05  0.5795E-05  0.5796E-05
       0.5799E-05  0.5802E-05  0.5805E-05  0.5809E-05  0.5812E-05
  13    0.000      0.5805E-05  0.5801E-05  0.5796E-05  0.5791E-05  0.5787E-05  0.5784E-05  0.5782E-05  0.5782E-05  0.5784E-05
       0.5788E-05  0.5792E-05  0.5797E-05  0.5801E-05   0.000    
  14    0.000      0.5800E-05  0.5794E-05  0.5787E-05  0.5781E-05  0.5775E-05  0.5770E-05  0.5767E-05  0.5767E-05  0.5770E-05
       0.5775E-05  0.5781E-05  0.5788E-05  0.5795E-05   0.000    
  15    0.000       0.000      0.5784E-05  0.5777E-05  0.5769E-05  0.5761E-05  0.5754E-05  0.5750E-05  0.5750E-05  0.5754E-05
       0.5762E-05  0.5769E-05  0.5775E-05   0.000       0.000    
  16    0.000       0.000      0.5776E-05  0.5767E-05  0.5757E-05  0.5746E-05  0.5735E-05  0.5728E-05  0.5728E-05  0.5735E-05
       0.5746E-05  0.5758E-05  0.5764E-05   0.000       0.000    
  17    0.000       0.000       0.000      0.5754E-05  0.5745E-05  0.5730E-05  0.5712E-05  0.5700E-05  0.5699E-05  0.5712E-05
       0.5730E-05  0.5746E-05  0.5758E-05   0.000       0.000    
  18    0.000       0.000       0.000      0.5746E-05  0.5737E-05  0.5717E-05  0.5682E-05  0.5658E-05  0.5658E-05  0.5681E-05
       0.5715E-05  0.5732E-05   0.000       0.000       0.000    
  19    0.000       0.000       0.000       0.000       0.000       0.000      0.5638E-05  0.5594E-05  0.5593E-05  0.5637E-05
        0.000       0.000       0.000       0.000       0.000    
  20    0.000       0.000       0.000       0.000       0.000       0.000       0.000      0.3158E-11  0.3158E-11   0.000    
        0.000       0.000       0.000       0.000       0.000    
 The following array is for system   4 of compressible interbeds:
1
   EQUIVALENT Sskv IN LAYER   4 AT END OF TIME STEP   1 IN STRESS PERIOD    1
  ---------------------------------------------------------------------------

            1           2           3           4           5           6           7           8           9          10
           11          12          13          14          15
 ........................................................................................................................
   1    0.000       0.000       0.000       0.000       0.000      0.1471E-03  0.1471E-03  0.1471E-03  0.1471E-03  0.1471E-03
        0.000       0.000       0.000       0.000       0.000    
   2    0.000       0.000       0.000       0.000      0.1471E-03  0.1471E-03  0.1471E-03  0.1471E-03  0.1471E-03  0.1471E-03
       0.1471E-03  0.1471E-03   0.000       0.000       0.000    
   3    0.000       0.000       0.000      0.1469E-03  0.1470E-03  0.1470E-03  0.1470E-03  0.1470E-03  0.1469E-03  0.1470E-03
       0.1470E-03  0.1470E-03   0.000       0.000       0.000    
   4    0.000       0.000       0.000      0.1468E-03  0.1468E-03  0.1468E-03  0.1468E-03  0.1468E-03  0.1468E-03  0.1468E-03
       0.1468E-03  0.1468E-03   0.000       0.000       0.000    
   5    0.000       0.000      0.1466E-03  0.1466E-03  0.1466E-03  0.1466E-03  0.1466E-03  0.1466E-03  0.1466E-03  0.1466E-03
       0.1466E-03  0.1467E-03  0.1466E-03   0.000       0.000    
   6    0.000       0.000      0.1464E-03  0.1464E-03  0.1464E-03  0.1464E-03  0.1464E-03  0.1464E-03  0.1464E-03  0.1464E-03
       0.1464E-03  0.1464E-03  0.1464E-03  0.1463E-03   0.000    
   7    0.000      0.1461E-03  0.1462E-03  0.1462E-03  0.1462E-03  0.1462E-03  0.1462E-03  0.1462E-03  0.1462E-03  0.1462E-03
       0.1462E-03  0.1462E-03  0.1462E-03  0.1462E-03   0.000    
   8    0.000      0.1460E-03  0.1460E-03  0.1460E-03  0.1460E-03  0.1460E-03  0.1459E-03  0.1459E-03  0.1459E-03  0.1459E-03
       0.1460E-03  0.1460E-03  0.1460E-03  0.1460E-03   0.000    
   9   0.1457E-03  0.1458E-03  0.1458E-03  0.1458E-03  0.1457E-03  0.1457E-03  0.1457E-03  0.1457E-03  0.1457E-03  0.1457E-03
       0.1457E-03  0.1457E-03  0.1457E-03  0.1457E-03  0.1456E-03
  10   0.1456E-03  0.1456E-03  0.1456E-03  0.1456E-03  0.1455E-03  0.1455E-03  0.1454E-03  0.1454E-03  0.1454E-03  0.1454E-03
       0.1455E-03  0.1455E-03  0.1455E-03  0.1455E-03  0.1455E-03
  11   0.1455E-03  0.1455E-03  0.1454E-03  0.1453E-03  0.1453E-03  0.1452E-03  0.1452E-03  0.1452E-03  0.1452E-03  0.1452E-03
       0.1452E-03  0.1453E-03  0.1453E-03  0.1454E-03  0.1454E-03
  12    0.000      0.1453E-03  0.1452E-03  0.1451E-03  0.1450E-03  0.1450E-03  0.1449E-03  0.1449E-03  0.1449E-03  0.1449E-03
       0.1450E-03  0.1450E-03  0.1451E-03  0.1452E-03  0.1453E-03
  13    0.000      0.1451E-03  0.1450E-03  0.1449E-03  0.1448E-03  0.1447E-03  0.1446E-03  0.1446E-03  0.1446E-03  0.1446E-03
       0.1447E-03  0.1448E-03  0.1449E-03  0.1450E-03   0.000    
  14    0.000      0.1450E-03  0.1448E-03  0.1447E-03  0.1445E-03  0.1444E-03  0.1442E-03  0.1442E-03  0.1442E-03  0.1443E-03
       0.1444E-03  0.1445E-03  0.1447E-03  0.1449E-03   0.000    
  15    0.000       0.000      0.1446E-03  0.1444E-03  0.1442E-03  0.1440E-03  0.1438E-03  0.1437E-03  0.1437E-03  0.1439E-03
       0.1440E-03  0.1442E-03  0.1444E-03   0.000       0.000    
  16    0.000       0.000      0.1444E-03  0.1442E-03  0.1439E-03  0.1436E-03  0.1434E-03  0.1432E-03  0.1432E-03  0.1434E-03
       0.1437E-03  0.1439E-03  0.1441E-03   0.000       0.000    
  17    0.000       0.000       0.000      0.1438E-03  0.1436E-03  0.1433E-03  0.1428E-03  0.1425E-03  0.1425E-03  0.1428E-03
       0.1433E-03  0.1437E-03  0.1439E-03   0.000       0.000    
  18    0.000       0.000       0.000      0.1437E-03  0.1434E-03  0.1429E-03  0.1421E-03  0.1415E-03  0.1414E-03  0.1420E-03
       0.1429E-03  0.1433E-03   0.000       0.000       0.000    
  19    0.000       0.000       0.000       0.000       0.000       0.000      0.1410E-03  0.1398E-03  0.1398E-03  0.1409E-03
        0.000       0.000       0.000       0.000       0.000    
  20    0.000       0.000       0.000       0.000       0.000       0.000       0.000      0.7894E-10  0.7894E-10   0.000    
        0.000       0.000       0.000       0.000       0.000    

 WEL PACKAGE STRESS PERIOD INFORMATION [BEFORE APPLICATION OF TABFILES]

 WELL NO.  LAYER   ROW   COL   STRESS RATE         
 --------------------------------------------------
      1      1      1      8   2200.0000    
      2      1      2      5   2200.0000    
      3      1      2      8   2200.0000    
      4      1      2     12   2200.0000    
      5      1      3      4   2200.0000    
      6      1      4     12   2200.0000    
      7      1      5      3   2200.0000    
      8      1      5     13   2200.0000    
      9      1      6     14   2200.0000    
     10      1      7      2   2200.0000    
     11      1     14      2   2200.0000    
     12      1     14     14   2200.0000    
     13      1     16      3   2200.0000    
     14      1     16     13   2200.0000    
     15      1     17     13   2200.0000    
     16      1     18      4   2200.0000    
     17      1     18     12   2200.0000    
     18      1     19      7   2200.0000    
     19      2      9     10  -72000.000    
     20      4     12      7  -72000.000    

20 WELLS
 
 SOLVING FOR HEAD 

     9 ITERATIONS FOR TIME STEP   1 IN STRESS PERIOD    2

 MAXIMUM HEAD CHANGE FOR EACH ITERATION:

    HEAD CHANGE   HEAD CHANGE   HEAD CHANGE   HEAD CHANGE   HEAD CHANGE
  LAYER,ROW,COL LAYER,ROW,COL LAYER,ROW,COL LAYER,ROW,COL LAYER,ROW,COL
 ----------------------------------------------------------------------
     -23.15        -1.954       -0.6464       -0.4962E-01   -0.2216E-01
  (  4, 12,  7) (  4, 11,  8) (  4, 11,  8) (  4, 12,  8) (  4, 10,  9)
     0.4875E-02    0.9988E-03   -0.1116E-03    0.5082E-04
  (  4,  9,  9) (  3,  9,  8) (  3,  9,  9) (  4,  8, 10)



Solver Convergence Information:
                              HClose:  5.0817135E-5
                              RClose:  0.0434804
                           L2-RClose:  0.1277173
                         Rel-Vol-Err:  5.4350517E-11
 

 OUTPUT CONTROL FOR STRESS PERIOD      2   TIME STEP     1
    SAVE BUDGET
    SAVE HEAD FOR ALL LAYERS
 UBUDSV SAVING "         STORAGE" ON UNIT 34 AT TIME STEP 1, STRESS PERIOD 2
 UBUDSV SAVING "   CONSTANT HEAD" ON UNIT 34 AT TIME STEP 1, STRESS PERIOD 2
 UBUDSV SAVING "FLOW RIGHT FACE " ON UNIT 34 AT TIME STEP 1, STRESS PERIOD 2
 UBUDSV SAVING "FLOW FRONT FACE " ON UNIT 34 AT TIME STEP 1, STRESS PERIOD 2
 UBUDSV SAVING "FLOW LOWER FACE " ON UNIT 34 AT TIME STEP 1, STRESS PERIOD 2
 UBUDSV SAVING "           WELLS" ON UNIT 34 AT TIME STEP 1, STRESS PERIOD 2

 HEAD WILL BE SAVED ON UNIT   35 AT END OF TIME STEP     1 IN STRESS PERIOD      2
 
 SOLVING FOR HEAD 
     8 ITERATIONS FOR TIME STEP   2 IN STRESS PERIOD    2

 MAXIMUM HEAD CHANGE FOR EACH ITERATION:

    HEAD CHANGE   HEAD CHANGE   HEAD CHANGE   HEAD CHANGE   HEAD CHANGE
  LAYER,ROW,COL LAYER,ROW,COL LAYER,ROW,COL LAYER,ROW,COL LAYER,ROW,COL
 ----------------------------------------------------------------------
     -4.739       -0.6059       -0.2226       -0.2329E-01   -0.6138E-02
  (  1,  9, 10) (  3,  9,  9) (  4,  8, 10) (  4,  9, 10) (  4, 10,  9)
    -0.1501E-02   -0.2890E-03    0.5158E-04
  (  4,  8,  9) (  4,  8, 10) (  4,  9,  5)



Solver Convergence Information:
                              HClose:  5.1584003E-5
                              RClose:  0.0381975
                           L2-RClose:  0.1230320
                         Rel-Vol-Err:  4.7746932E-11
 

 OUTPUT CONTROL FOR STRESS PERIOD      2   TIME STEP     2
    SAVE BUDGET
    SAVE HEAD FOR ALL LAYERS
 UBUDSV SAVING "         STORAGE" ON UNIT 34 AT TIME STEP 2, STRESS PERIOD 2
 UBUDSV SAVING "   CONSTANT HEAD" ON UNIT 34 AT TIME STEP 2, STRESS PERIOD 2
 UBUDSV SAVING "FLOW RIGHT FACE " ON UNIT 34 AT TIME STEP 2, STRESS PERIOD 2
 UBUDSV SAVING "FLOW FRONT FACE " ON UNIT 34 AT TIME STEP 2, STRESS PERIOD 2
 UBUDSV SAVING "FLOW LOWER FACE " ON UNIT 34 AT TIME STEP 2, STRESS PERIOD 2
 UBUDSV SAVING "           WELLS" ON UNIT 34 AT TIME STEP 2, STRESS PERIOD 2

 HEAD WILL BE SAVED ON UNIT   35 AT END OF TIME STEP     2 IN STRESS PERIOD      2
 
 SOLVING FOR HEAD 
     8 ITERATIONS FOR TIME STEP   3 IN STRESS PERIOD    2

 MAXIMUM HEAD CHANGE FOR EACH ITERATION:

    HEAD CHANGE   HEAD CHANGE   HEAD CHANGE   HEAD CHANGE   HEAD CHANGE
  LAYER,ROW,COL LAYER,ROW,COL LAYER,ROW,COL LAYER,ROW,COL LAYER,ROW,COL
 ----------------------------------------------------------------------
     -2.818       -0.4561       -0.2004       -0.1992E-01   -0.4121E-02
  (  1,  9, 10) (  3,  9,  9) (  4,  8, 10) (  4,  9, 10) (  4, 10,  9)
    -0.8326E-03   -0.1859E-03    0.4340E-04
  (  4,  8,  9) (  3,  9, 10) (  4,  9,  5)



Solver Convergence Information:
                              HClose:  4.3396002E-5
                              RClose:  0.0241503
                           L2-RClose:  0.0877527
                         Rel-Vol-Err:  3.0187855E-11
 

 OUTPUT CONTROL FOR STRESS PERIOD      2   TIME STEP     3
    SAVE BUDGET
    SAVE HEAD FOR ALL LAYERS
 UBUDSV SAVING "         STORAGE" ON UNIT 34 AT TIME STEP 3, STRESS PERIOD 2
 UBUDSV SAVING "   CONSTANT HEAD" ON UNIT 34 AT TIME STEP 3, STRESS PERIOD 2
 UBUDSV SAVING "FLOW RIGHT FACE " ON UNIT 34 AT TIME STEP 3, STRESS PERIOD 2
 UBUDSV SAVING "FLOW FRONT FACE " ON UNIT 34 AT TIME STEP 3, STRESS PERIOD 2
 UBUDSV SAVING "FLOW LOWER FACE " ON UNIT 34 AT TIME STEP 3, STRESS PERIOD 2
 UBUDSV SAVING "           WELLS" ON UNIT 34 AT TIME STEP 3, STRESS PERIOD 2

 HEAD WILL BE SAVED ON UNIT   35 AT END OF TIME STEP     3 IN STRESS PERIOD      2
 
 SOLVING FOR HEAD 
     8 ITERATIONS FOR TIME STEP   4 IN STRESS PERIOD    2

 MAXIMUM HEAD CHANGE FOR EACH ITERATION:

    HEAD CHANGE   HEAD CHANGE   HEAD CHANGE   HEAD CHANGE   HEAD CHANGE
  LAYER,ROW,COL LAYER,ROW,COL LAYER,ROW,COL LAYER,ROW,COL LAYER,ROW,COL
 ----------------------------------------------------------------------
     -1.825       -0.3637       -0.1831       -0.1788E-01   -0.3281E-02
  (  1,  9, 10) (  3,  9,  9) (  4,  9, 10) (  4,  9, 10) (  4, 12, 15)
    -0.7781E-03   -0.1734E-03    0.3564E-04
  (  4, 14, 14) (  3, 14, 14) (  4,  9,  5)



Solver Convergence Information:
                              HClose:  3.5638005E-5
                              RClose:  0.0192724
                           L2-RClose:  0.0722273
                         Rel-Vol-Err:  2.4090531E-11
 

 OUTPUT CONTROL FOR STRESS PERIOD      2   TIME STEP     4
    SAVE BUDGET
    SAVE HEAD FOR ALL LAYERS
 UBUDSV SAVING "         STORAGE" ON UNIT 34 AT TIME STEP 4, STRESS PERIOD 2
 UBUDSV SAVING "   CONSTANT HEAD" ON UNIT 34 AT TIME STEP 4, STRESS PERIOD 2
 UBUDSV SAVING "FLOW RIGHT FACE " ON UNIT 34 AT TIME STEP 4, STRESS PERIOD 2
 UBUDSV SAVING "FLOW FRONT FACE " ON UNIT 34 AT TIME STEP 4, STRESS PERIOD 2
 UBUDSV SAVING "FLOW LOWER FACE " ON UNIT 34 AT TIME STEP 4, STRESS PERIOD 2
 UBUDSV SAVING "           WELLS" ON UNIT 34 AT TIME STEP 4, STRESS PERIOD 2

 HEAD WILL BE SAVED ON UNIT   35 AT END OF TIME STEP     4 IN STRESS PERIOD      2
 
 SOLVING FOR HEAD 
     8 ITERATIONS FOR TIME STEP   5 IN STRESS PERIOD    2

 MAXIMUM HEAD CHANGE FOR EACH ITERATION:

    HEAD CHANGE   HEAD CHANGE   HEAD CHANGE   HEAD CHANGE   HEAD CHANGE
  LAYER,ROW,COL LAYER,ROW,COL LAYER,ROW,COL LAYER,ROW,COL LAYER,ROW,COL
 ----------------------------------------------------------------------
     -1.287       -0.3041       -0.1682       -0.1625E-01   -0.3489E-02
  (  1,  9, 10) (  3,  9,  9) (  4,  9, 10) (  4,  9, 10) (  4, 12, 15)
    -0.8510E-03   -0.1885E-03    0.3066E-04
  (  4, 14, 14) (  3, 14, 14) (  4,  9,  5)



Solver Convergence Information:
                              HClose:  3.0663318E-5
                              RClose:  0.0207469
                           L2-RClose:  0.0670514
                         Rel-Vol-Err:  2.5933648E-11
 

 OUTPUT CONTROL FOR STRESS PERIOD      2   TIME STEP     5
    SAVE BUDGET
    SAVE HEAD FOR ALL LAYERS
 UBUDSV SAVING "         STORAGE" ON UNIT 34 AT TIME STEP 5, STRESS PERIOD 2
 UBUDSV SAVING "   CONSTANT HEAD" ON UNIT 34 AT TIME STEP 5, STRESS PERIOD 2
 UBUDSV SAVING "FLOW RIGHT FACE " ON UNIT 34 AT TIME STEP 5, STRESS PERIOD 2
 UBUDSV SAVING "FLOW FRONT FACE " ON UNIT 34 AT TIME STEP 5, STRESS PERIOD 2
 UBUDSV SAVING "FLOW LOWER FACE " ON UNIT 34 AT TIME STEP 5, STRESS PERIOD 2
 UBUDSV SAVING "           WELLS" ON UNIT 34 AT TIME STEP 5, STRESS PERIOD 2

 HEAD WILL BE SAVED ON UNIT   35 AT END OF TIME STEP     5 IN STRESS PERIOD      2
 
 SOLVING FOR HEAD 
     8 ITERATIONS FOR TIME STEP   6 IN STRESS PERIOD    2

 MAXIMUM HEAD CHANGE FOR EACH ITERATION:

    HEAD CHANGE   HEAD CHANGE   HEAD CHANGE   HEAD CHANGE   HEAD CHANGE
  LAYER,ROW,COL LAYER,ROW,COL LAYER,ROW,COL LAYER,ROW,COL LAYER,ROW,COL
 ----------------------------------------------------------------------
    -0.9786       -0.2605       -0.1578       -0.1478E-01   -0.3667E-02
  (  1,  9, 10) (  3,  9,  9) (  4,  9, 10) (  4,  9, 10) (  4, 12, 15)
    -0.9194E-03   -0.2028E-03   -0.3341E-04
  (  4, 14, 14) (  3, 14, 14) (  4, 17, 13)



Solver Convergence Information:
                              HClose:  3.3412338E-5
                              RClose:  0.0222041
                           L2-RClose:  0.0656733
                         Rel-Vol-Err:  2.7755075E-11
 

 OUTPUT CONTROL FOR STRESS PERIOD      2   TIME STEP     6
    SAVE BUDGET
    SAVE HEAD FOR ALL LAYERS
 UBUDSV SAVING "         STORAGE" ON UNIT 34 AT TIME STEP 6, STRESS PERIOD 2
 UBUDSV SAVING "   CONSTANT HEAD" ON UNIT 34 AT TIME STEP 6, STRESS PERIOD 2
 UBUDSV SAVING "FLOW RIGHT FACE " ON UNIT 34 AT TIME STEP 6, STRESS PERIOD 2
 UBUDSV SAVING "FLOW FRONT FACE " ON UNIT 34 AT TIME STEP 6, STRESS PERIOD 2
 UBUDSV SAVING "FLOW LOWER FACE " ON UNIT 34 AT TIME STEP 6, STRESS PERIOD 2
 UBUDSV SAVING "           WELLS" ON UNIT 34 AT TIME STEP 6, STRESS PERIOD 2

 HEAD WILL BE SAVED ON UNIT   35 AT END OF TIME STEP     6 IN STRESS PERIOD      2
 
 SOLVING FOR HEAD 
     8 ITERATIONS FOR TIME STEP   7 IN STRESS PERIOD    2

 MAXIMUM HEAD CHANGE FOR EACH ITERATION:

    HEAD CHANGE   HEAD CHANGE   HEAD CHANGE   HEAD CHANGE   HEAD CHANGE
  LAYER,ROW,COL LAYER,ROW,COL LAYER,ROW,COL LAYER,ROW,COL LAYER,ROW,COL
 ----------------------------------------------------------------------
    -0.7930       -0.2311       -0.1493       -0.1362E-01   -0.3903E-02
  (  1,  9, 10) (  3,  9,  9) (  4, 10,  9) (  4,  9, 10) (  4, 14, 14)
    -0.9826E-03   -0.2158E-03   -0.3749E-04
  (  4, 14, 14) (  3, 14, 14) (  4, 17, 13)



Solver Convergence Information:
                              HClose:  3.7489037E-5
                              RClose:  0.0236350
                           L2-RClose:  0.0674985
                         Rel-Vol-Err:  2.9543692E-11
 

 OUTPUT CONTROL FOR STRESS PERIOD      2   TIME STEP     7
    SAVE BUDGET
    SAVE HEAD FOR ALL LAYERS
 UBUDSV SAVING "         STORAGE" ON UNIT 34 AT TIME STEP 7, STRESS PERIOD 2
 UBUDSV SAVING "   CONSTANT HEAD" ON UNIT 34 AT TIME STEP 7, STRESS PERIOD 2
 UBUDSV SAVING "FLOW RIGHT FACE " ON UNIT 34 AT TIME STEP 7, STRESS PERIOD 2
 UBUDSV SAVING "FLOW FRONT FACE " ON UNIT 34 AT TIME STEP 7, STRESS PERIOD 2
 UBUDSV SAVING "FLOW LOWER FACE " ON UNIT 34 AT TIME STEP 7, STRESS PERIOD 2
 UBUDSV SAVING "           WELLS" ON UNIT 34 AT TIME STEP 7, STRESS PERIOD 2

 HEAD WILL BE SAVED ON UNIT   35 AT END OF TIME STEP     7 IN STRESS PERIOD      2
 
 SOLVING FOR HEAD 
     8 ITERATIONS FOR TIME STEP   8 IN STRESS PERIOD    2

 MAXIMUM HEAD CHANGE FOR EACH ITERATION:

    HEAD CHANGE   HEAD CHANGE   HEAD CHANGE   HEAD CHANGE   HEAD CHANGE
  LAYER,ROW,COL LAYER,ROW,COL LAYER,ROW,COL LAYER,ROW,COL LAYER,ROW,COL
 ----------------------------------------------------------------------
    -0.6662       -0.2080       -0.1421       -0.1264E-01   -0.4154E-02
  (  1,  9, 10) (  3,  9,  9) (  4, 10,  9) (  4,  9, 10) (  4, 14, 14)
    -0.1040E-02   -0.2274E-03   -0.4127E-04
  (  4, 14, 14) (  3, 14, 14) (  4, 17, 13)



Solver Convergence Information:
                              HClose:  4.1266911E-5
                              RClose:  0.0249656
                           L2-RClose:  0.0698970
                         Rel-Vol-Err:  3.1207045E-11
 

 OUTPUT CONTROL FOR STRESS PERIOD      2   TIME STEP     8
    SAVE BUDGET
    SAVE HEAD FOR ALL LAYERS
 UBUDSV SAVING "         STORAGE" ON UNIT 34 AT TIME STEP 8, STRESS PERIOD 2
 UBUDSV SAVING "   CONSTANT HEAD" ON UNIT 34 AT TIME STEP 8, STRESS PERIOD 2
 UBUDSV SAVING "FLOW RIGHT FACE " ON UNIT 34 AT TIME STEP 8, STRESS PERIOD 2
 UBUDSV SAVING "FLOW FRONT FACE " ON UNIT 34 AT TIME STEP 8, STRESS PERIOD 2
 UBUDSV SAVING "FLOW LOWER FACE " ON UNIT 34 AT TIME STEP 8, STRESS PERIOD 2
 UBUDSV SAVING "           WELLS" ON UNIT 34 AT TIME STEP 8, STRESS PERIOD 2

 HEAD WILL BE SAVED ON UNIT   35 AT END OF TIME STEP     8 IN STRESS PERIOD      2
 
 SOLVING FOR HEAD 
     8 ITERATIONS FOR TIME STEP   9 IN STRESS PERIOD    2

 MAXIMUM HEAD CHANGE FOR EACH ITERATION:

    HEAD CHANGE   HEAD CHANGE   HEAD CHANGE   HEAD CHANGE   HEAD CHANGE
  LAYER,ROW,COL LAYER,ROW,COL LAYER,ROW,COL LAYER,ROW,COL LAYER,ROW,COL
 ----------------------------------------------------------------------
    -0.5760       -0.1910       -0.1353       -0.1179E-01   -0.4378E-02
  (  1,  9, 10) (  3, 10,  9) (  4, 10,  9) (  4,  9, 10) (  4, 14, 14)
    -0.1091E-02   -0.2376E-03   -0.4474E-04
  (  4, 14, 14) (  3, 14, 14) (  4, 17, 13)



Solver Convergence Information:
                              HClose:  4.4737031E-5
                              RClose:  0.0261824
                           L2-RClose:  0.0724251
                         Rel-Vol-Err:  3.2727978E-11
 

 OUTPUT CONTROL FOR STRESS PERIOD      2   TIME STEP     9
    SAVE BUDGET
    SAVE HEAD FOR ALL LAYERS
 UBUDSV SAVING "         STORAGE" ON UNIT 34 AT TIME STEP 9, STRESS PERIOD 2
 UBUDSV SAVING "   CONSTANT HEAD" ON UNIT 34 AT TIME STEP 9, STRESS PERIOD 2
 UBUDSV SAVING "FLOW RIGHT FACE " ON UNIT 34 AT TIME STEP 9, STRESS PERIOD 2
 UBUDSV SAVING "FLOW FRONT FACE " ON UNIT 34 AT TIME STEP 9, STRESS PERIOD 2
 UBUDSV SAVING "FLOW LOWER FACE " ON UNIT 34 AT TIME STEP 9, STRESS PERIOD 2
 UBUDSV SAVING "           WELLS" ON UNIT 34 AT TIME STEP 9, STRESS PERIOD 2

 HEAD WILL BE SAVED ON UNIT   35 AT END OF TIME STEP     9 IN STRESS PERIOD      2
 
 SOLVING FOR HEAD 
     8 ITERATIONS FOR TIME STEP  10 IN STRESS PERIOD    2

 MAXIMUM HEAD CHANGE FOR EACH ITERATION:

    HEAD CHANGE   HEAD CHANGE   HEAD CHANGE   HEAD CHANGE   HEAD CHANGE
  LAYER,ROW,COL LAYER,ROW,COL LAYER,ROW,COL LAYER,ROW,COL LAYER,ROW,COL
 ----------------------------------------------------------------------
    -0.5095       -0.1767       -0.1290       -0.1106E-01   -0.4577E-02
  (  1,  9, 10) (  3, 10,  9) (  4, 10,  9) (  4,  9, 10) (  4, 14, 14)
    -0.1137E-02   -0.2464E-03   -0.4790E-04
  (  4, 14, 14) (  3, 14, 14) (  4, 17, 13)



Solver Convergence Information:
                              HClose:  4.7901853E-5
                              RClose:  0.0272806
                           L2-RClose:  0.0748762
                         Rel-Vol-Err:  3.4100796E-11
 

 OUTPUT CONTROL FOR STRESS PERIOD      2   TIME STEP    10
    SAVE BUDGET
    SAVE HEAD FOR ALL LAYERS
 UBUDSV SAVING "         STORAGE" ON UNIT 34 AT TIME STEP 10, STRESS PERIOD 2
 UBUDSV SAVING "   CONSTANT HEAD" ON UNIT 34 AT TIME STEP 10, STRESS PERIOD 2
 UBUDSV SAVING "FLOW RIGHT FACE " ON UNIT 34 AT TIME STEP 10, STRESS PERIOD 2
 UBUDSV SAVING "FLOW FRONT FACE " ON UNIT 34 AT TIME STEP 10, STRESS PERIOD 2
 UBUDSV SAVING "FLOW LOWER FACE " ON UNIT 34 AT TIME STEP 10, STRESS PERIOD 2
 UBUDSV SAVING "           WELLS" ON UNIT 34 AT TIME STEP 10, STRESS PERIOD 2

 HEAD WILL BE SAVED ON UNIT   35 AT END OF TIME STEP    10 IN STRESS PERIOD      2
 
 SOLVING FOR HEAD 
     8 ITERATIONS FOR TIME STEP  11 IN STRESS PERIOD    2

 MAXIMUM HEAD CHANGE FOR EACH ITERATION:

    HEAD CHANGE   HEAD CHANGE   HEAD CHANGE   HEAD CHANGE   HEAD CHANGE
  LAYER,ROW,COL LAYER,ROW,COL LAYER,ROW,COL LAYER,ROW,COL LAYER,ROW,COL
 ----------------------------------------------------------------------
    -0.4588       -0.1646       -0.1233       -0.1043E-01   -0.4752E-02
  (  1,  9, 10) (  3, 10,  9) (  4, 10,  9) (  4,  9, 10) (  4, 14, 14)
    -0.1178E-02   -0.2539E-03   -0.5077E-04
  (  4, 14, 14) (  3, 14, 14) (  4, 17, 13)



Solver Convergence Information:
                              HClose:  5.0771277E-5
                              RClose:  0.0282617
                           L2-RClose:  0.0771582
                         Rel-Vol-Err:  3.5327076E-11
 

 OUTPUT CONTROL FOR STRESS PERIOD      2   TIME STEP    11
    SAVE BUDGET
    SAVE HEAD FOR ALL LAYERS
 UBUDSV SAVING "         STORAGE" ON UNIT 34 AT TIME STEP 11, STRESS PERIOD 2
 UBUDSV SAVING "   CONSTANT HEAD" ON UNIT 34 AT TIME STEP 11, STRESS PERIOD 2
 UBUDSV SAVING "FLOW RIGHT FACE " ON UNIT 34 AT TIME STEP 11, STRESS PERIOD 2
 UBUDSV SAVING "FLOW FRONT FACE " ON UNIT 34 AT TIME STEP 11, STRESS PERIOD 2
 UBUDSV SAVING "FLOW LOWER FACE " ON UNIT 34 AT TIME STEP 11, STRESS PERIOD 2
 UBUDSV SAVING "           WELLS" ON UNIT 34 AT TIME STEP 11, STRESS PERIOD 2

 HEAD WILL BE SAVED ON UNIT   35 AT END OF TIME STEP    11 IN STRESS PERIOD      2
 
 SOLVING FOR HEAD 
     8 ITERATIONS FOR TIME STEP  12 IN STRESS PERIOD    2

 MAXIMUM HEAD CHANGE FOR EACH ITERATION:

    HEAD CHANGE   HEAD CHANGE   HEAD CHANGE   HEAD CHANGE   HEAD CHANGE
  LAYER,ROW,COL LAYER,ROW,COL LAYER,ROW,COL LAYER,ROW,COL LAYER,ROW,COL
 ----------------------------------------------------------------------
    -0.4191       -0.1541       -0.1182       -0.9878E-02   -0.4906E-02
  (  1,  9, 10) (  3, 10,  9) (  4, 10,  9) (  4,  9, 10) (  4, 14, 14)
    -0.1214E-02   -0.2603E-03   -0.5336E-04
  (  4, 14, 14) (  3, 14, 14) (  4, 17, 13)



Solver Convergence Information:
                              HClose:  5.3359759E-5
                              RClose:  0.0291302
                           L2-RClose:  0.0792344
                         Rel-Vol-Err:  3.6412810E-11
 

 OUTPUT CONTROL FOR STRESS PERIOD      2   TIME STEP    12
    SAVE BUDGET
    SAVE HEAD FOR ALL LAYERS
 UBUDSV SAVING "         STORAGE" ON UNIT 34 AT TIME STEP 12, STRESS PERIOD 2
 UBUDSV SAVING "   CONSTANT HEAD" ON UNIT 34 AT TIME STEP 12, STRESS PERIOD 2
 UBUDSV SAVING "FLOW RIGHT FACE " ON UNIT 34 AT TIME STEP 12, STRESS PERIOD 2
 UBUDSV SAVING "FLOW FRONT FACE " ON UNIT 34 AT TIME STEP 12, STRESS PERIOD 2
 UBUDSV SAVING "FLOW LOWER FACE " ON UNIT 34 AT TIME STEP 12, STRESS PERIOD 2
 UBUDSV SAVING "           WELLS" ON UNIT 34 AT TIME STEP 12, STRESS PERIOD 2

 HEAD WILL BE SAVED ON UNIT   35 AT END OF TIME STEP    12 IN STRESS PERIOD      2
 
 SOLVING FOR HEAD 
     8 ITERATIONS FOR TIME STEP  13 IN STRESS PERIOD    2

 MAXIMUM HEAD CHANGE FOR EACH ITERATION:

    HEAD CHANGE   HEAD CHANGE   HEAD CHANGE   HEAD CHANGE   HEAD CHANGE
  LAYER,ROW,COL LAYER,ROW,COL LAYER,ROW,COL LAYER,ROW,COL LAYER,ROW,COL
 ----------------------------------------------------------------------
    -0.3871       -0.1449       -0.1134       -0.9393E-02   -0.5040E-02
  (  1,  9, 10) (  3, 10,  9) (  4, 10,  9) (  4,  9, 10) (  4, 14, 14)
    -0.1246E-02   -0.2657E-03   -0.5568E-04
  (  4, 14, 14) (  3, 14, 14) (  4, 17, 13)



Solver Convergence Information:
                              HClose:  5.5684316E-5
                              RClose:  0.0298932
                           L2-RClose:  0.0810952
                         Rel-Vol-Err:  3.7366504E-11
 

 OUTPUT CONTROL FOR STRESS PERIOD      2   TIME STEP    13
    SAVE BUDGET
    SAVE HEAD FOR ALL LAYERS
 UBUDSV SAVING "         STORAGE" ON UNIT 34 AT TIME STEP 13, STRESS PERIOD 2
 UBUDSV SAVING "   CONSTANT HEAD" ON UNIT 34 AT TIME STEP 13, STRESS PERIOD 2
 UBUDSV SAVING "FLOW RIGHT FACE " ON UNIT 34 AT TIME STEP 13, STRESS PERIOD 2
 UBUDSV SAVING "FLOW FRONT FACE " ON UNIT 34 AT TIME STEP 13, STRESS PERIOD 2
 UBUDSV SAVING "FLOW LOWER FACE " ON UNIT 34 AT TIME STEP 13, STRESS PERIOD 2
 UBUDSV SAVING "           WELLS" ON UNIT 34 AT TIME STEP 13, STRESS PERIOD 2

 HEAD WILL BE SAVED ON UNIT   35 AT END OF TIME STEP    13 IN STRESS PERIOD      2
 
 SOLVING FOR HEAD 
     8 ITERATIONS FOR TIME STEP  14 IN STRESS PERIOD    2

 MAXIMUM HEAD CHANGE FOR EACH ITERATION:

    HEAD CHANGE   HEAD CHANGE   HEAD CHANGE   HEAD CHANGE   HEAD CHANGE
  LAYER,ROW,COL LAYER,ROW,COL LAYER,ROW,COL LAYER,ROW,COL LAYER,ROW,COL
 ----------------------------------------------------------------------
    -0.3610       -0.1370       -0.1092       -0.9524E-02   -0.5157E-02
  (  1,  9, 10) (  3, 10,  9) (  4, 10,  9) (  4, 12, 15) (  4, 14, 14)
    -0.1273E-02   -0.2703E-03   -0.5776E-04
  (  4, 14, 14) (  3, 14, 14) (  4, 17, 13)



Solver Convergence Information:
                              HClose:  5.7763168E-5
                              RClose:  0.0305583
                           L2-RClose:  0.0827447
                         Rel-Vol-Err:  3.8197920E-11
 

 OUTPUT CONTROL FOR STRESS PERIOD      2   TIME STEP    14
    SAVE BUDGET
    SAVE HEAD FOR ALL LAYERS
 UBUDSV SAVING "         STORAGE" ON UNIT 34 AT TIME STEP 14, STRESS PERIOD 2
 UBUDSV SAVING "   CONSTANT HEAD" ON UNIT 34 AT TIME STEP 14, STRESS PERIOD 2
 UBUDSV SAVING "FLOW RIGHT FACE " ON UNIT 34 AT TIME STEP 14, STRESS PERIOD 2
 UBUDSV SAVING "FLOW FRONT FACE " ON UNIT 34 AT TIME STEP 14, STRESS PERIOD 2
 UBUDSV SAVING "FLOW LOWER FACE " ON UNIT 34 AT TIME STEP 14, STRESS PERIOD 2
 UBUDSV SAVING "           WELLS" ON UNIT 34 AT TIME STEP 14, STRESS PERIOD 2

 HEAD WILL BE SAVED ON UNIT   35 AT END OF TIME STEP    14 IN STRESS PERIOD      2
 
 SOLVING FOR HEAD 
     8 ITERATIONS FOR TIME STEP  15 IN STRESS PERIOD    2

 MAXIMUM HEAD CHANGE FOR EACH ITERATION:

    HEAD CHANGE   HEAD CHANGE   HEAD CHANGE   HEAD CHANGE   HEAD CHANGE
  LAYER,ROW,COL LAYER,ROW,COL LAYER,ROW,COL LAYER,ROW,COL LAYER,ROW,COL
 ----------------------------------------------------------------------
    -0.3391       -0.1300       -0.1053       -0.9693E-02   -0.5257E-02
  (  1,  9, 10) (  3, 10,  9) (  4, 10,  9) (  4, 12, 15) (  4, 14, 14)
    -0.1297E-02   -0.2740E-03   -0.5961E-04
  (  4, 14, 14) (  3, 14, 14) (  4, 17, 13)



Solver Convergence Information:
                              HClose:  5.9614833E-5
                              RClose:  0.0311338
                           L2-RClose:  0.0841936
                         Rel-Vol-Err:  3.8917268E-11
 

 OUTPUT CONTROL FOR STRESS PERIOD      2   TIME STEP    15
    SAVE BUDGET
    SAVE HEAD FOR ALL LAYERS
 UBUDSV SAVING "         STORAGE" ON UNIT 34 AT TIME STEP 15, STRESS PERIOD 2
 UBUDSV SAVING "   CONSTANT HEAD" ON UNIT 34 AT TIME STEP 15, STRESS PERIOD 2
 UBUDSV SAVING "FLOW RIGHT FACE " ON UNIT 34 AT TIME STEP 15, STRESS PERIOD 2
 UBUDSV SAVING "FLOW FRONT FACE " ON UNIT 34 AT TIME STEP 15, STRESS PERIOD 2
 UBUDSV SAVING "FLOW LOWER FACE " ON UNIT 34 AT TIME STEP 15, STRESS PERIOD 2
 UBUDSV SAVING "           WELLS" ON UNIT 34 AT TIME STEP 15, STRESS PERIOD 2

 HEAD WILL BE SAVED ON UNIT   35 AT END OF TIME STEP    15 IN STRESS PERIOD      2
 
 SOLVING FOR HEAD 
     8 ITERATIONS FOR TIME STEP  16 IN STRESS PERIOD    2

 MAXIMUM HEAD CHANGE FOR EACH ITERATION:

    HEAD CHANGE   HEAD CHANGE   HEAD CHANGE   HEAD CHANGE   HEAD CHANGE
  LAYER,ROW,COL LAYER,ROW,COL LAYER,ROW,COL LAYER,ROW,COL LAYER,ROW,COL
 ----------------------------------------------------------------------
    -0.3207       -0.1239       -0.1018       -0.9833E-02   -0.5343E-02
  (  1,  9, 10) (  3, 10,  9) (  4, 10,  9) (  4, 12, 15) (  4, 14, 14)
    -0.1317E-02   -0.2796E-03   -0.6126E-04
  (  4, 14, 14) (  3, 16, 13) (  4, 17, 13)



Solver Convergence Information:
                              HClose:  6.1257534E-5
                              RClose:  0.0316278
                           L2-RClose:  0.0854556
                         Rel-Vol-Err:  3.9534690E-11
 

 OUTPUT CONTROL FOR STRESS PERIOD      2   TIME STEP    16
    SAVE BUDGET
    SAVE HEAD FOR ALL LAYERS
 UBUDSV SAVING "         STORAGE" ON UNIT 34 AT TIME STEP 16, STRESS PERIOD 2
 UBUDSV SAVING "   CONSTANT HEAD" ON UNIT 34 AT TIME STEP 16, STRESS PERIOD 2
 UBUDSV SAVING "FLOW RIGHT FACE " ON UNIT 34 AT TIME STEP 16, STRESS PERIOD 2
 UBUDSV SAVING "FLOW FRONT FACE " ON UNIT 34 AT TIME STEP 16, STRESS PERIOD 2
 UBUDSV SAVING "FLOW LOWER FACE " ON UNIT 34 AT TIME STEP 16, STRESS PERIOD 2
 UBUDSV SAVING "           WELLS" ON UNIT 34 AT TIME STEP 16, STRESS PERIOD 2

 HEAD WILL BE SAVED ON UNIT   35 AT END OF TIME STEP    16 IN STRESS PERIOD      2
 
 SOLVING FOR HEAD 
     8 ITERATIONS FOR TIME STEP  17 IN STRESS PERIOD    2

 MAXIMUM HEAD CHANGE FOR EACH ITERATION:

    HEAD CHANGE   HEAD CHANGE   HEAD CHANGE   HEAD CHANGE   HEAD CHANGE
  LAYER,ROW,COL LAYER,ROW,COL LAYER,ROW,COL LAYER,ROW,COL LAYER,ROW,COL
 ----------------------------------------------------------------------
    -0.3049       -0.1184       -0.9863E-01   -0.9947E-02   -0.5417E-02
  (  1,  9, 10) (  3, 10,  9) (  4, 10,  9) (  4, 12, 15) (  4, 14, 14)
    -0.1335E-02   -0.2846E-03   -0.6271E-04
  (  4, 14, 14) (  3, 16, 13) (  4, 17, 13)



Solver Convergence Information:
                              HClose:  6.2708818E-5
                              RClose:  0.0320480
                           L2-RClose:  0.0865455
                         Rel-Vol-Err:  4.0059942E-11
 

 OUTPUT CONTROL FOR STRESS PERIOD      2   TIME STEP    17
    SAVE BUDGET
    SAVE HEAD FOR ALL LAYERS
 UBUDSV SAVING "         STORAGE" ON UNIT 34 AT TIME STEP 17, STRESS PERIOD 2
 UBUDSV SAVING "   CONSTANT HEAD" ON UNIT 34 AT TIME STEP 17, STRESS PERIOD 2
 UBUDSV SAVING "FLOW RIGHT FACE " ON UNIT 34 AT TIME STEP 17, STRESS PERIOD 2
 UBUDSV SAVING "FLOW FRONT FACE " ON UNIT 34 AT TIME STEP 17, STRESS PERIOD 2
 UBUDSV SAVING "FLOW LOWER FACE " ON UNIT 34 AT TIME STEP 17, STRESS PERIOD 2
 UBUDSV SAVING "           WELLS" ON UNIT 34 AT TIME STEP 17, STRESS PERIOD 2

 HEAD WILL BE SAVED ON UNIT   35 AT END OF TIME STEP    17 IN STRESS PERIOD      2
 
 SOLVING FOR HEAD 
     8 ITERATIONS FOR TIME STEP  18 IN STRESS PERIOD    2

 MAXIMUM HEAD CHANGE FOR EACH ITERATION:

    HEAD CHANGE   HEAD CHANGE   HEAD CHANGE   HEAD CHANGE   HEAD CHANGE
  LAYER,ROW,COL LAYER,ROW,COL LAYER,ROW,COL LAYER,ROW,COL LAYER,ROW,COL
 ----------------------------------------------------------------------
    -0.2912       -0.1136       -0.9574E-01   -0.1004E-01   -0.5479E-02
  (  1,  9, 10) (  3, 10,  9) (  4, 10,  9) (  4, 12, 15) (  4, 14, 14)
    -0.1349E-02   -0.2889E-03   -0.6399E-04
  (  4, 14, 14) (  3, 16, 13) (  4, 17, 13)



Solver Convergence Information:
                              HClose:  6.3985331E-5
                              RClose:  0.0324018
                           L2-RClose:  0.0874783
                         Rel-Vol-Err:  4.0502219E-11
 

 OUTPUT CONTROL FOR STRESS PERIOD      2   TIME STEP    18
    SAVE BUDGET
    SAVE HEAD FOR ALL LAYERS
 UBUDSV SAVING "         STORAGE" ON UNIT 34 AT TIME STEP 18, STRESS PERIOD 2
 UBUDSV SAVING "   CONSTANT HEAD" ON UNIT 34 AT TIME STEP 18, STRESS PERIOD 2
 UBUDSV SAVING "FLOW RIGHT FACE " ON UNIT 34 AT TIME STEP 18, STRESS PERIOD 2
 UBUDSV SAVING "FLOW FRONT FACE " ON UNIT 34 AT TIME STEP 18, STRESS PERIOD 2
 UBUDSV SAVING "FLOW LOWER FACE " ON UNIT 34 AT TIME STEP 18, STRESS PERIOD 2
 UBUDSV SAVING "           WELLS" ON UNIT 34 AT TIME STEP 18, STRESS PERIOD 2

 HEAD WILL BE SAVED ON UNIT   35 AT END OF TIME STEP    18 IN STRESS PERIOD      2
 
 SOLVING FOR HEAD 
     8 ITERATIONS FOR TIME STEP  19 IN STRESS PERIOD    2

 MAXIMUM HEAD CHANGE FOR EACH ITERATION:

    HEAD CHANGE   HEAD CHANGE   HEAD CHANGE   HEAD CHANGE   HEAD CHANGE
  LAYER,ROW,COL LAYER,ROW,COL LAYER,ROW,COL LAYER,ROW,COL LAYER,ROW,COL
 ----------------------------------------------------------------------
    -0.2793       -0.1092       -0.9311E-01   -0.1011E-01   -0.5531E-02
  (  1,  9, 10) (  3, 10,  9) (  4, 10,  9) (  4, 12, 15) (  4, 14, 14)
    -0.1362E-02   -0.2925E-03   -0.6510E-04
  (  4, 14, 14) (  3, 16, 13) (  4, 17, 13)



Solver Convergence Information:
                              HClose:  6.5102693E-5
                              RClose:  0.0326960
                           L2-RClose:  0.0882682
                         Rel-Vol-Err:  4.0870053E-11
 

 OUTPUT CONTROL FOR STRESS PERIOD      2   TIME STEP    19
    SAVE BUDGET
    SAVE HEAD FOR ALL LAYERS
 UBUDSV SAVING "         STORAGE" ON UNIT 34 AT TIME STEP 19, STRESS PERIOD 2
 UBUDSV SAVING "   CONSTANT HEAD" ON UNIT 34 AT TIME STEP 19, STRESS PERIOD 2
 UBUDSV SAVING "FLOW RIGHT FACE " ON UNIT 34 AT TIME STEP 19, STRESS PERIOD 2
 UBUDSV SAVING "FLOW FRONT FACE " ON UNIT 34 AT TIME STEP 19, STRESS PERIOD 2
 UBUDSV SAVING "FLOW LOWER FACE " ON UNIT 34 AT TIME STEP 19, STRESS PERIOD 2
 UBUDSV SAVING "           WELLS" ON UNIT 34 AT TIME STEP 19, STRESS PERIOD 2

 HEAD WILL BE SAVED ON UNIT   35 AT END OF TIME STEP    19 IN STRESS PERIOD      2
 
 SOLVING FOR HEAD 
     8 ITERATIONS FOR TIME STEP  20 IN STRESS PERIOD    2

 MAXIMUM HEAD CHANGE FOR EACH ITERATION:

    HEAD CHANGE   HEAD CHANGE   HEAD CHANGE   HEAD CHANGE   HEAD CHANGE
  LAYER,ROW,COL LAYER,ROW,COL LAYER,ROW,COL LAYER,ROW,COL LAYER,ROW,COL
 ----------------------------------------------------------------------
    -0.2689       -0.1054       -0.9073E-01   -0.1017E-01   -0.5574E-02
  (  1,  9, 10) (  3, 10,  9) (  4, 10,  9) (  4, 12, 15) (  4, 14, 14)
    -0.1372E-02   -0.2957E-03   -0.6608E-04
  (  4, 14, 14) (  3, 16, 13) (  4, 17, 13)



Solver Convergence Information:
                              HClose:  6.6075443E-5
                              RClose:  0.0329370
                           L2-RClose:  0.0889290
                         Rel-Vol-Err:  4.1171284E-11
 

 OUTPUT CONTROL FOR STRESS PERIOD      2   TIME STEP    20
    SAVE BUDGET
    SAVE HEAD FOR ALL LAYERS
 UBUDSV SAVING "         STORAGE" ON UNIT 34 AT TIME STEP 20, STRESS PERIOD 2
 UBUDSV SAVING "   CONSTANT HEAD" ON UNIT 34 AT TIME STEP 20, STRESS PERIOD 2
 UBUDSV SAVING "FLOW RIGHT FACE " ON UNIT 34 AT TIME STEP 20, STRESS PERIOD 2
 UBUDSV SAVING "FLOW FRONT FACE " ON UNIT 34 AT TIME STEP 20, STRESS PERIOD 2
 UBUDSV SAVING "FLOW LOWER FACE " ON UNIT 34 AT TIME STEP 20, STRESS PERIOD 2
 UBUDSV SAVING "           WELLS" ON UNIT 34 AT TIME STEP 20, STRESS PERIOD 2

 HEAD WILL BE SAVED ON UNIT   35 AT END OF TIME STEP    20 IN STRESS PERIOD      2
 
 SOLVING FOR HEAD 
     8 ITERATIONS FOR TIME STEP  21 IN STRESS PERIOD    2

 MAXIMUM HEAD CHANGE FOR EACH ITERATION:

    HEAD CHANGE   HEAD CHANGE   HEAD CHANGE   HEAD CHANGE   HEAD CHANGE
  LAYER,ROW,COL LAYER,ROW,COL LAYER,ROW,COL LAYER,ROW,COL LAYER,ROW,COL
 ----------------------------------------------------------------------
    -0.2597       -0.1019       -0.8855E-01   -0.1021E-01   -0.5608E-02
  (  1,  9, 10) (  3, 10,  9) (  4, 10,  9) (  4, 12, 15) (  4, 14, 14)
    -0.1380E-02   -0.2983E-03   -0.6692E-04
  (  4, 14, 14) (  3, 16, 13) (  4, 17, 13)



Solver Convergence Information:
                              HClose:  6.6917028E-5
                              RClose:  0.0331304
                           L2-RClose:  0.0894732
                         Rel-Vol-Err:  4.1413059E-11
 

 OUTPUT CONTROL FOR STRESS PERIOD      2   TIME STEP    21
    SAVE BUDGET
    SAVE HEAD FOR ALL LAYERS
 UBUDSV SAVING "         STORAGE" ON UNIT 34 AT TIME STEP 21, STRESS PERIOD 2
 UBUDSV SAVING "   CONSTANT HEAD" ON UNIT 34 AT TIME STEP 21, STRESS PERIOD 2
 UBUDSV SAVING "FLOW RIGHT FACE " ON UNIT 34 AT TIME STEP 21, STRESS PERIOD 2
 UBUDSV SAVING "FLOW FRONT FACE " ON UNIT 34 AT TIME STEP 21, STRESS PERIOD 2
 UBUDSV SAVING "FLOW LOWER FACE " ON UNIT 34 AT TIME STEP 21, STRESS PERIOD 2
 UBUDSV SAVING "           WELLS" ON UNIT 34 AT TIME STEP 21, STRESS PERIOD 2

 HEAD WILL BE SAVED ON UNIT   35 AT END OF TIME STEP    21 IN STRESS PERIOD      2
 
 SOLVING FOR HEAD 
     8 ITERATIONS FOR TIME STEP  22 IN STRESS PERIOD    2

 MAXIMUM HEAD CHANGE FOR EACH ITERATION:

    HEAD CHANGE   HEAD CHANGE   HEAD CHANGE   HEAD CHANGE   HEAD CHANGE
  LAYER,ROW,COL LAYER,ROW,COL LAYER,ROW,COL LAYER,ROW,COL LAYER,ROW,COL
 ----------------------------------------------------------------------
    -0.2515       -0.9880E-01   -0.8657E-01   -0.1024E-01   -0.5634E-02
  (  1,  9, 10) (  3, 10,  9) (  4, 10,  9) (  4, 12, 15) (  4, 14, 14)
    -0.1387E-02   -0.3005E-03   -0.6763E-04
  (  4, 14, 14) (  3, 16, 13) (  4, 17, 13)



Solver Convergence Information:
                              HClose:  6.7629304E-5
                              RClose:  0.0332558
                           L2-RClose:  0.0897665
                         Rel-Vol-Err:  4.1569696E-11
 

 OUTPUT CONTROL FOR STRESS PERIOD      2   TIME STEP    22
    SAVE BUDGET
    SAVE HEAD FOR ALL LAYERS
 UBUDSV SAVING "         STORAGE" ON UNIT 34 AT TIME STEP 22, STRESS PERIOD 2
 UBUDSV SAVING "   CONSTANT HEAD" ON UNIT 34 AT TIME STEP 22, STRESS PERIOD 2
 UBUDSV SAVING "FLOW RIGHT FACE " ON UNIT 34 AT TIME STEP 22, STRESS PERIOD 2
 UBUDSV SAVING "FLOW FRONT FACE " ON UNIT 34 AT TIME STEP 22, STRESS PERIOD 2
 UBUDSV SAVING "FLOW LOWER FACE " ON UNIT 34 AT TIME STEP 22, STRESS PERIOD 2
 UBUDSV SAVING "           WELLS" ON UNIT 34 AT TIME STEP 22, STRESS PERIOD 2

 HEAD WILL BE SAVED ON UNIT   35 AT END OF TIME STEP    22 IN STRESS PERIOD      2
 
 SOLVING FOR HEAD 
     8 ITERATIONS FOR TIME STEP  23 IN STRESS PERIOD    2

 MAXIMUM HEAD CHANGE FOR EACH ITERATION:

    HEAD CHANGE   HEAD CHANGE   HEAD CHANGE   HEAD CHANGE   HEAD CHANGE
  LAYER,ROW,COL LAYER,ROW,COL LAYER,ROW,COL LAYER,ROW,COL LAYER,ROW,COL
 ----------------------------------------------------------------------
    -0.2444       -0.9574E-01   -0.8468E-01   -0.1026E-01   -0.5658E-02
  (  1,  9, 10) (  3, 10,  9) (  4, 10,  9) (  4, 12, 15) (  4, 14, 14)
    -0.1392E-02   -0.3023E-03   -0.6827E-04
  (  4, 14, 14) (  3, 16, 13) (  4, 17, 13)



Solver Convergence Information:
                              HClose:  6.8266249E-5
                              RClose:  0.0333916
                           L2-RClose:  0.0901954
                         Rel-Vol-Err:  4.1739544E-11
 

 OUTPUT CONTROL FOR STRESS PERIOD      2   TIME STEP    23
    SAVE BUDGET
    SAVE HEAD FOR ALL LAYERS
 UBUDSV SAVING "         STORAGE" ON UNIT 34 AT TIME STEP 23, STRESS PERIOD 2
 UBUDSV SAVING "   CONSTANT HEAD" ON UNIT 34 AT TIME STEP 23, STRESS PERIOD 2
 UBUDSV SAVING "FLOW RIGHT FACE " ON UNIT 34 AT TIME STEP 23, STRESS PERIOD 2
 UBUDSV SAVING "FLOW FRONT FACE " ON UNIT 34 AT TIME STEP 23, STRESS PERIOD 2
 UBUDSV SAVING "FLOW LOWER FACE " ON UNIT 34 AT TIME STEP 23, STRESS PERIOD 2
 UBUDSV SAVING "           WELLS" ON UNIT 34 AT TIME STEP 23, STRESS PERIOD 2

 HEAD WILL BE SAVED ON UNIT   35 AT END OF TIME STEP    23 IN STRESS PERIOD      2
 
 SOLVING FOR HEAD 
     8 ITERATIONS FOR TIME STEP  24 IN STRESS PERIOD    2

 MAXIMUM HEAD CHANGE FOR EACH ITERATION:

    HEAD CHANGE   HEAD CHANGE   HEAD CHANGE   HEAD CHANGE   HEAD CHANGE
  LAYER,ROW,COL LAYER,ROW,COL LAYER,ROW,COL LAYER,ROW,COL LAYER,ROW,COL
 ----------------------------------------------------------------------
    -0.2384       -0.9333E-01   -0.8308E-01   -0.1027E-01   -0.5674E-02
  (  1,  9, 10) (  3, 10,  9) (  4, 10,  9) (  4, 12, 15) (  4, 14, 14)
    -0.1395E-02   -0.3038E-03   -0.6878E-04
  (  4, 14, 14) (  3, 16, 13) (  4, 17, 13)



Solver Convergence Information:
                              HClose:  6.8784216E-5
                              RClose:  0.0334720
                           L2-RClose:  0.0904614
                         Rel-Vol-Err:  4.1839994E-11
 

 OUTPUT CONTROL FOR STRESS PERIOD      2   TIME STEP    24
    SAVE BUDGET
    SAVE HEAD FOR ALL LAYERS
 UBUDSV SAVING "         STORAGE" ON UNIT 34 AT TIME STEP 24, STRESS PERIOD 2
 UBUDSV SAVING "   CONSTANT HEAD" ON UNIT 34 AT TIME STEP 24, STRESS PERIOD 2
 UBUDSV SAVING "FLOW RIGHT FACE " ON UNIT 34 AT TIME STEP 24, STRESS PERIOD 2
 UBUDSV SAVING "FLOW FRONT FACE " ON UNIT 34 AT TIME STEP 24, STRESS PERIOD 2
 UBUDSV SAVING "FLOW LOWER FACE " ON UNIT 34 AT TIME STEP 24, STRESS PERIOD 2
 UBUDSV SAVING "           WELLS" ON UNIT 34 AT TIME STEP 24, STRESS PERIOD 2

 HEAD WILL BE SAVED ON UNIT   35 AT END OF TIME STEP    24 IN STRESS PERIOD      2
 
 SOLVING FOR HEAD 
     8 ITERATIONS FOR TIME STEP  25 IN STRESS PERIOD    2

 MAXIMUM HEAD CHANGE FOR EACH ITERATION:

    HEAD CHANGE   HEAD CHANGE   HEAD CHANGE   HEAD CHANGE   HEAD CHANGE
  LAYER,ROW,COL LAYER,ROW,COL LAYER,ROW,COL LAYER,ROW,COL LAYER,ROW,COL
 ----------------------------------------------------------------------
    -0.2329       -0.9104E-01   -0.8156E-01   -0.1027E-01   -0.5684E-02
  (  1,  9, 10) (  3, 10,  9) (  4, 10,  9) (  4, 12, 15) (  4, 14, 14)
    -0.1398E-02   -0.3049E-03   -0.6921E-04
  (  4, 14, 14) (  3, 16, 13) (  4, 17, 13)



Solver Convergence Information:
                              HClose:  6.9213981E-5
                              RClose:  0.0335219
                           L2-RClose:  0.0906489
                         Rel-Vol-Err:  4.1902434E-11
 

 OUTPUT CONTROL FOR STRESS PERIOD      2   TIME STEP    25
    SAVE BUDGET
    SAVE HEAD FOR ALL LAYERS
 UBUDSV SAVING "         STORAGE" ON UNIT 34 AT TIME STEP 25, STRESS PERIOD 2
 UBUDSV SAVING "   CONSTANT HEAD" ON UNIT 34 AT TIME STEP 25, STRESS PERIOD 2
 UBUDSV SAVING "FLOW RIGHT FACE " ON UNIT 34 AT TIME STEP 25, STRESS PERIOD 2
 UBUDSV SAVING "FLOW FRONT FACE " ON UNIT 34 AT TIME STEP 25, STRESS PERIOD 2
 UBUDSV SAVING "FLOW LOWER FACE " ON UNIT 34 AT TIME STEP 25, STRESS PERIOD 2
 UBUDSV SAVING "           WELLS" ON UNIT 34 AT TIME STEP 25, STRESS PERIOD 2

 HEAD WILL BE SAVED ON UNIT   35 AT END OF TIME STEP    25 IN STRESS PERIOD      2
 
 SOLVING FOR HEAD 
     8 ITERATIONS FOR TIME STEP  26 IN STRESS PERIOD    2

 MAXIMUM HEAD CHANGE FOR EACH ITERATION:

    HEAD CHANGE   HEAD CHANGE   HEAD CHANGE   HEAD CHANGE   HEAD CHANGE
  LAYER,ROW,COL LAYER,ROW,COL LAYER,ROW,COL LAYER,ROW,COL LAYER,ROW,COL
 ----------------------------------------------------------------------
    -0.2278       -0.8896E-01   -0.8021E-01   -0.1026E-01   -0.5690E-02
  (  1,  9, 10) (  3, 10,  9) (  4, 10, 10) (  4, 12, 15) (  4, 14, 14)
    -0.1399E-02   -0.3057E-03   -0.6956E-04
  (  4, 14, 14) (  3, 16, 13) (  4, 17, 13)



Solver Convergence Information:
                              HClose:  6.9564830E-5
                              RClose:  0.0335455
                           L2-RClose:  0.0907684
                         Rel-Vol-Err:  4.1931903E-11
 

 OUTPUT CONTROL FOR STRESS PERIOD      2   TIME STEP    26
    SAVE BUDGET
    SAVE HEAD FOR ALL LAYERS
 UBUDSV SAVING "         STORAGE" ON UNIT 34 AT TIME STEP 26, STRESS PERIOD 2
 UBUDSV SAVING "   CONSTANT HEAD" ON UNIT 34 AT TIME STEP 26, STRESS PERIOD 2
 UBUDSV SAVING "FLOW RIGHT FACE " ON UNIT 34 AT TIME STEP 26, STRESS PERIOD 2
 UBUDSV SAVING "FLOW FRONT FACE " ON UNIT 34 AT TIME STEP 26, STRESS PERIOD 2
 UBUDSV SAVING "FLOW LOWER FACE " ON UNIT 34 AT TIME STEP 26, STRESS PERIOD 2
 UBUDSV SAVING "           WELLS" ON UNIT 34 AT TIME STEP 26, STRESS PERIOD 2

 HEAD WILL BE SAVED ON UNIT   35 AT END OF TIME STEP    26 IN STRESS PERIOD      2
 
 SOLVING FOR HEAD 
     8 ITERATIONS FOR TIME STEP  27 IN STRESS PERIOD    2

 MAXIMUM HEAD CHANGE FOR EACH ITERATION:

    HEAD CHANGE   HEAD CHANGE   HEAD CHANGE   HEAD CHANGE   HEAD CHANGE
  LAYER,ROW,COL LAYER,ROW,COL LAYER,ROW,COL LAYER,ROW,COL LAYER,ROW,COL
 ----------------------------------------------------------------------
    -0.2232       -0.8706E-01   -0.7901E-01   -0.1025E-01   -0.5692E-02
  (  1,  9, 10) (  3, 10,  9) (  4, 10, 10) (  4, 12, 15) (  4, 14, 14)
    -0.1400E-02   -0.3062E-03   -0.6984E-04
  (  4, 14, 14) (  3, 16, 13) (  4, 17, 13)



Solver Convergence Information:
                              HClose:  6.9844685E-5
                              RClose:  0.0335458
                           L2-RClose:  0.0908273
                         Rel-Vol-Err:  4.1932283E-11
 

 OUTPUT CONTROL FOR STRESS PERIOD      2   TIME STEP    27
    SAVE BUDGET
    SAVE HEAD FOR ALL LAYERS
 UBUDSV SAVING "         STORAGE" ON UNIT 34 AT TIME STEP 27, STRESS PERIOD 2
 UBUDSV SAVING "   CONSTANT HEAD" ON UNIT 34 AT TIME STEP 27, STRESS PERIOD 2
 UBUDSV SAVING "FLOW RIGHT FACE " ON UNIT 34 AT TIME STEP 27, STRESS PERIOD 2
 UBUDSV SAVING "FLOW FRONT FACE " ON UNIT 34 AT TIME STEP 27, STRESS PERIOD 2
 UBUDSV SAVING "FLOW LOWER FACE " ON UNIT 34 AT TIME STEP 27, STRESS PERIOD 2
 UBUDSV SAVING "           WELLS" ON UNIT 34 AT TIME STEP 27, STRESS PERIOD 2

 HEAD WILL BE SAVED ON UNIT   35 AT END OF TIME STEP    27 IN STRESS PERIOD      2
 
 SOLVING FOR HEAD 
     8 ITERATIONS FOR TIME STEP  28 IN STRESS PERIOD    2

 MAXIMUM HEAD CHANGE FOR EACH ITERATION:

    HEAD CHANGE   HEAD CHANGE   HEAD CHANGE   HEAD CHANGE   HEAD CHANGE
  LAYER,ROW,COL LAYER,ROW,COL LAYER,ROW,COL LAYER,ROW,COL LAYER,ROW,COL
 ----------------------------------------------------------------------
    -0.2189       -0.8533E-01   -0.7790E-01   -0.1023E-01   -0.5691E-02
  (  1,  9, 10) (  3, 10,  9) (  4, 10, 10) (  4, 12, 15) (  4, 14, 14)
    -0.1399E-02   -0.3066E-03   -0.7006E-04
  (  4, 14, 14) (  3, 16, 13) (  4, 17, 13)



Solver Convergence Information:
                              HClose:  7.0060681E-5
                              RClose:  0.0335256
                           L2-RClose:  0.0908325
                         Rel-Vol-Err:  4.1906978E-11
 

 OUTPUT CONTROL FOR STRESS PERIOD      2   TIME STEP    28
    SAVE BUDGET
    SAVE HEAD FOR ALL LAYERS
 UBUDSV SAVING "         STORAGE" ON UNIT 34 AT TIME STEP 28, STRESS PERIOD 2
 UBUDSV SAVING "   CONSTANT HEAD" ON UNIT 34 AT TIME STEP 28, STRESS PERIOD 2
 UBUDSV SAVING "FLOW RIGHT FACE " ON UNIT 34 AT TIME STEP 28, STRESS PERIOD 2
 UBUDSV SAVING "FLOW FRONT FACE " ON UNIT 34 AT TIME STEP 28, STRESS PERIOD 2
 UBUDSV SAVING "FLOW LOWER FACE " ON UNIT 34 AT TIME STEP 28, STRESS PERIOD 2
 UBUDSV SAVING "           WELLS" ON UNIT 34 AT TIME STEP 28, STRESS PERIOD 2

 HEAD WILL BE SAVED ON UNIT   35 AT END OF TIME STEP    28 IN STRESS PERIOD      2
 
 SOLVING FOR HEAD 
     8 ITERATIONS FOR TIME STEP  29 IN STRESS PERIOD    2

 MAXIMUM HEAD CHANGE FOR EACH ITERATION:

    HEAD CHANGE   HEAD CHANGE   HEAD CHANGE   HEAD CHANGE   HEAD CHANGE
  LAYER,ROW,COL LAYER,ROW,COL LAYER,ROW,COL LAYER,ROW,COL LAYER,ROW,COL
 ----------------------------------------------------------------------
    -0.2150       -0.8374E-01   -0.7687E-01   -0.1020E-01   -0.5687E-02
  (  1,  9, 10) (  3, 10,  9) (  4, 10, 10) (  4, 12, 15) (  4, 14, 14)
    -0.1398E-02   -0.3067E-03   -0.7022E-04
  (  4, 14, 14) (  3, 16, 13) (  4, 17, 13)



Solver Convergence Information:
                              HClose:  7.0219281E-5
                              RClose:  0.0334872
                           L2-RClose:  0.0907897
                         Rel-Vol-Err:  4.1859025E-11
 

 OUTPUT CONTROL FOR STRESS PERIOD      2   TIME STEP    29
    SAVE BUDGET
    SAVE HEAD FOR ALL LAYERS
 UBUDSV SAVING "         STORAGE" ON UNIT 34 AT TIME STEP 29, STRESS PERIOD 2
 UBUDSV SAVING "   CONSTANT HEAD" ON UNIT 34 AT TIME STEP 29, STRESS PERIOD 2
 UBUDSV SAVING "FLOW RIGHT FACE " ON UNIT 34 AT TIME STEP 29, STRESS PERIOD 2
 UBUDSV SAVING "FLOW FRONT FACE " ON UNIT 34 AT TIME STEP 29, STRESS PERIOD 2
 UBUDSV SAVING "FLOW LOWER FACE " ON UNIT 34 AT TIME STEP 29, STRESS PERIOD 2
 UBUDSV SAVING "           WELLS" ON UNIT 34 AT TIME STEP 29, STRESS PERIOD 2

 HEAD WILL BE SAVED ON UNIT   35 AT END OF TIME STEP    29 IN STRESS PERIOD      2
 
 SOLVING FOR HEAD 
     8 ITERATIONS FOR TIME STEP  30 IN STRESS PERIOD    2

 MAXIMUM HEAD CHANGE FOR EACH ITERATION:

    HEAD CHANGE   HEAD CHANGE   HEAD CHANGE   HEAD CHANGE   HEAD CHANGE
  LAYER,ROW,COL LAYER,ROW,COL LAYER,ROW,COL LAYER,ROW,COL LAYER,ROW,COL
 ----------------------------------------------------------------------
    -0.2114       -0.8229E-01   -0.7591E-01   -0.1017E-01   -0.5680E-02
  (  1,  9, 10) (  3, 10,  9) (  4, 10, 10) (  4, 12, 15) (  4, 14, 14)
    -0.1396E-02   -0.3067E-03   -0.7033E-04
  (  4, 14, 14) (  3, 16, 13) (  4, 17, 13)



Solver Convergence Information:
                              HClose:  7.0326345E-5
                              RClose:  0.0334329
                           L2-RClose:  0.0907045
                         Rel-Vol-Err:  4.1791134E-11
 

 OUTPUT CONTROL FOR STRESS PERIOD      2   TIME STEP    30
    SAVE BUDGET
    SAVE HEAD FOR ALL LAYERS
 UBUDSV SAVING "         STORAGE" ON UNIT 34 AT TIME STEP 30, STRESS PERIOD 2
 UBUDSV SAVING "   CONSTANT HEAD" ON UNIT 34 AT TIME STEP 30, STRESS PERIOD 2
 UBUDSV SAVING "FLOW RIGHT FACE " ON UNIT 34 AT TIME STEP 30, STRESS PERIOD 2
 UBUDSV SAVING "FLOW FRONT FACE " ON UNIT 34 AT TIME STEP 30, STRESS PERIOD 2
 UBUDSV SAVING "FLOW LOWER FACE " ON UNIT 34 AT TIME STEP 30, STRESS PERIOD 2
 UBUDSV SAVING "           WELLS" ON UNIT 34 AT TIME STEP 30, STRESS PERIOD 2

 HEAD WILL BE SAVED ON UNIT   35 AT END OF TIME STEP    30 IN STRESS PERIOD      2
 
 SOLVING FOR HEAD 
     8 ITERATIONS FOR TIME STEP  31 IN STRESS PERIOD    2

 MAXIMUM HEAD CHANGE FOR EACH ITERATION:

    HEAD CHANGE   HEAD CHANGE   HEAD CHANGE   HEAD CHANGE   HEAD CHANGE
  LAYER,ROW,COL LAYER,ROW,COL LAYER,ROW,COL LAYER,ROW,COL LAYER,ROW,COL
 ----------------------------------------------------------------------
    -0.2081       -0.8095E-01   -0.7502E-01   -0.1014E-01   -0.5670E-02
  (  1,  9, 10) (  3, 10,  9) (  4, 10, 10) (  4, 12, 15) (  4, 14, 14)
    -0.1394E-02   -0.3065E-03   -0.7039E-04
  (  4, 14, 14) (  3, 16, 13) (  4, 17, 13)



Solver Convergence Information:
                              HClose:  7.0387178E-5
                              RClose:  0.0333646
                           L2-RClose:  0.0905815
                         Rel-Vol-Err:  4.1705724E-11
 

 OUTPUT CONTROL FOR STRESS PERIOD      2   TIME STEP    31
    SAVE BUDGET
    SAVE HEAD FOR ALL LAYERS
 UBUDSV SAVING "         STORAGE" ON UNIT 34 AT TIME STEP 31, STRESS PERIOD 2
 UBUDSV SAVING "   CONSTANT HEAD" ON UNIT 34 AT TIME STEP 31, STRESS PERIOD 2
 UBUDSV SAVING "FLOW RIGHT FACE " ON UNIT 34 AT TIME STEP 31, STRESS PERIOD 2
 UBUDSV SAVING "FLOW FRONT FACE " ON UNIT 34 AT TIME STEP 31, STRESS PERIOD 2
 UBUDSV SAVING "FLOW LOWER FACE " ON UNIT 34 AT TIME STEP 31, STRESS PERIOD 2
 UBUDSV SAVING "           WELLS" ON UNIT 34 AT TIME STEP 31, STRESS PERIOD 2

 HEAD WILL BE SAVED ON UNIT   35 AT END OF TIME STEP    31 IN STRESS PERIOD      2
 
 SOLVING FOR HEAD 
     8 ITERATIONS FOR TIME STEP  32 IN STRESS PERIOD    2

 MAXIMUM HEAD CHANGE FOR EACH ITERATION:

    HEAD CHANGE   HEAD CHANGE   HEAD CHANGE   HEAD CHANGE   HEAD CHANGE
  LAYER,ROW,COL LAYER,ROW,COL LAYER,ROW,COL LAYER,ROW,COL LAYER,ROW,COL
 ----------------------------------------------------------------------
    -0.2051       -0.7981E-01   -0.7419E-01   -0.1011E-01   -0.5659E-02
  (  1,  9, 10) (  4, 10, 11) (  4, 10, 10) (  4, 12, 15) (  4, 14, 14)
    -0.1391E-02   -0.3061E-03   -0.7041E-04
  (  4, 14, 14) (  3, 16, 13) (  4, 17, 13)



Solver Convergence Information:
                              HClose:  7.0406586E-5
                              RClose:  0.0332840
                           L2-RClose:  0.0904252
                         Rel-Vol-Err:  4.1604955E-11
 

 OUTPUT CONTROL FOR STRESS PERIOD      2   TIME STEP    32
    SAVE BUDGET
    SAVE HEAD FOR ALL LAYERS
 UBUDSV SAVING "         STORAGE" ON UNIT 34 AT TIME STEP 32, STRESS PERIOD 2
 UBUDSV SAVING "   CONSTANT HEAD" ON UNIT 34 AT TIME STEP 32, STRESS PERIOD 2
 UBUDSV SAVING "FLOW RIGHT FACE " ON UNIT 34 AT TIME STEP 32, STRESS PERIOD 2
 UBUDSV SAVING "FLOW FRONT FACE " ON UNIT 34 AT TIME STEP 32, STRESS PERIOD 2
 UBUDSV SAVING "FLOW LOWER FACE " ON UNIT 34 AT TIME STEP 32, STRESS PERIOD 2
 UBUDSV SAVING "           WELLS" ON UNIT 34 AT TIME STEP 32, STRESS PERIOD 2

 HEAD WILL BE SAVED ON UNIT   35 AT END OF TIME STEP    32 IN STRESS PERIOD      2
 
 SOLVING FOR HEAD 
     8 ITERATIONS FOR TIME STEP  33 IN STRESS PERIOD    2

 MAXIMUM HEAD CHANGE FOR EACH ITERATION:

    HEAD CHANGE   HEAD CHANGE   HEAD CHANGE   HEAD CHANGE   HEAD CHANGE
  LAYER,ROW,COL LAYER,ROW,COL LAYER,ROW,COL LAYER,ROW,COL LAYER,ROW,COL
 ----------------------------------------------------------------------
    -0.2023       -0.7923E-01   -0.7329E-01   -0.1008E-01   -0.5635E-02
  (  1,  9, 10) (  3, 10, 13) (  4, 10, 10) (  4, 12, 15) (  4, 14, 14)
    -0.1387E-02   -0.3053E-03   -0.7034E-04
  (  4, 14, 14) (  3, 16, 13) (  4, 17, 13)



Solver Convergence Information:
                              HClose:  7.0336585E-5
                              RClose:  0.0330725
                           L2-RClose:  0.0901807
                         Rel-Vol-Err:  4.1340687E-11
 

 OUTPUT CONTROL FOR STRESS PERIOD      2   TIME STEP    33
    SAVE BUDGET
    SAVE HEAD FOR ALL LAYERS
 UBUDSV SAVING "         STORAGE" ON UNIT 34 AT TIME STEP 33, STRESS PERIOD 2
 UBUDSV SAVING "   CONSTANT HEAD" ON UNIT 34 AT TIME STEP 33, STRESS PERIOD 2
 UBUDSV SAVING "FLOW RIGHT FACE " ON UNIT 34 AT TIME STEP 33, STRESS PERIOD 2
 UBUDSV SAVING "FLOW FRONT FACE " ON UNIT 34 AT TIME STEP 33, STRESS PERIOD 2
 UBUDSV SAVING "FLOW LOWER FACE " ON UNIT 34 AT TIME STEP 33, STRESS PERIOD 2
 UBUDSV SAVING "           WELLS" ON UNIT 34 AT TIME STEP 33, STRESS PERIOD 2

 HEAD WILL BE SAVED ON UNIT   35 AT END OF TIME STEP    33 IN STRESS PERIOD      2
 
 SOLVING FOR HEAD 
     8 ITERATIONS FOR TIME STEP  34 IN STRESS PERIOD    2

 MAXIMUM HEAD CHANGE FOR EACH ITERATION:

    HEAD CHANGE   HEAD CHANGE   HEAD CHANGE   HEAD CHANGE   HEAD CHANGE
  LAYER,ROW,COL LAYER,ROW,COL LAYER,ROW,COL LAYER,ROW,COL LAYER,ROW,COL
 ----------------------------------------------------------------------
    -0.1998       -0.7872E-01   -0.7261E-01   -0.1004E-01   -0.5620E-02
  (  1,  9, 10) (  3, 10, 13) (  4, 10, 10) (  4, 12, 15) (  4, 14, 14)
    -0.1384E-02   -0.3047E-03   -0.7029E-04
  (  4, 14, 14) (  3, 16, 13) (  4, 17, 13)



Solver Convergence Information:
                              HClose:  7.0285813E-5
                              RClose:  0.0329620
                           L2-RClose:  0.0900009
                         Rel-Vol-Err:  4.1202554E-11
 

 OUTPUT CONTROL FOR STRESS PERIOD      2   TIME STEP    34
    SAVE BUDGET
    SAVE HEAD FOR ALL LAYERS
 UBUDSV SAVING "         STORAGE" ON UNIT 34 AT TIME STEP 34, STRESS PERIOD 2
 UBUDSV SAVING "   CONSTANT HEAD" ON UNIT 34 AT TIME STEP 34, STRESS PERIOD 2
 UBUDSV SAVING "FLOW RIGHT FACE " ON UNIT 34 AT TIME STEP 34, STRESS PERIOD 2
 UBUDSV SAVING "FLOW FRONT FACE " ON UNIT 34 AT TIME STEP 34, STRESS PERIOD 2
 UBUDSV SAVING "FLOW LOWER FACE " ON UNIT 34 AT TIME STEP 34, STRESS PERIOD 2
 UBUDSV SAVING "           WELLS" ON UNIT 34 AT TIME STEP 34, STRESS PERIOD 2

 HEAD WILL BE SAVED ON UNIT   35 AT END OF TIME STEP    34 IN STRESS PERIOD      2
 
 SOLVING FOR HEAD 
     8 ITERATIONS FOR TIME STEP  35 IN STRESS PERIOD    2

 MAXIMUM HEAD CHANGE FOR EACH ITERATION:

    HEAD CHANGE   HEAD CHANGE   HEAD CHANGE   HEAD CHANGE   HEAD CHANGE
  LAYER,ROW,COL LAYER,ROW,COL LAYER,ROW,COL LAYER,ROW,COL LAYER,ROW,COL
 ----------------------------------------------------------------------
    -0.1974       -0.7822E-01   -0.7194E-01   -0.9997E-02   -0.5604E-02
  (  1,  9, 10) (  3, 10, 13) (  4, 10, 10) (  4, 12, 15) (  4, 14, 14)
    -0.1380E-02   -0.3041E-03   -0.7021E-04
  (  4, 14, 14) (  3, 16, 13) (  4, 17, 13)



Solver Convergence Information:
                              HClose:  7.0207172E-5
                              RClose:  0.0328556
                           L2-RClose:  0.0897710
                         Rel-Vol-Err:  4.1069554E-11
 

 OUTPUT CONTROL FOR STRESS PERIOD      2   TIME STEP    35
    SAVE BUDGET
    SAVE HEAD FOR ALL LAYERS
 UBUDSV SAVING "         STORAGE" ON UNIT 34 AT TIME STEP 35, STRESS PERIOD 2
 UBUDSV SAVING "   CONSTANT HEAD" ON UNIT 34 AT TIME STEP 35, STRESS PERIOD 2
 UBUDSV SAVING "FLOW RIGHT FACE " ON UNIT 34 AT TIME STEP 35, STRESS PERIOD 2
 UBUDSV SAVING "FLOW FRONT FACE " ON UNIT 34 AT TIME STEP 35, STRESS PERIOD 2
 UBUDSV SAVING "FLOW LOWER FACE " ON UNIT 34 AT TIME STEP 35, STRESS PERIOD 2
 UBUDSV SAVING "           WELLS" ON UNIT 34 AT TIME STEP 35, STRESS PERIOD 2

 HEAD WILL BE SAVED ON UNIT   35 AT END OF TIME STEP    35 IN STRESS PERIOD      2
 
 SOLVING FOR HEAD 
     8 ITERATIONS FOR TIME STEP  36 IN STRESS PERIOD    2

 MAXIMUM HEAD CHANGE FOR EACH ITERATION:

    HEAD CHANGE   HEAD CHANGE   HEAD CHANGE   HEAD CHANGE   HEAD CHANGE
  LAYER,ROW,COL LAYER,ROW,COL LAYER,ROW,COL LAYER,ROW,COL LAYER,ROW,COL
 ----------------------------------------------------------------------
    -0.1952       -0.7772E-01   -0.7130E-01   -0.9953E-02   -0.5587E-02
  (  1,  9, 10) (  3, 10, 13) (  4, 10, 10) (  4, 12, 15) (  4, 14, 14)
    -0.1375E-02   -0.3033E-03   -0.7010E-04
  (  4, 14, 14) (  3, 16, 13) (  4, 17, 13)



Solver Convergence Information:
                              HClose:  7.0099905E-5
                              RClose:  0.0327406
                           L2-RClose:  0.0895157
                         Rel-Vol-Err:  4.0925804E-11
 

 OUTPUT CONTROL FOR STRESS PERIOD      2   TIME STEP    36
    SAVE BUDGET
    SAVE HEAD FOR ALL LAYERS
 UBUDSV SAVING "         STORAGE" ON UNIT 34 AT TIME STEP 36, STRESS PERIOD 2
 UBUDSV SAVING "   CONSTANT HEAD" ON UNIT 34 AT TIME STEP 36, STRESS PERIOD 2
 UBUDSV SAVING "FLOW RIGHT FACE " ON UNIT 34 AT TIME STEP 36, STRESS PERIOD 2
 UBUDSV SAVING "FLOW FRONT FACE " ON UNIT 34 AT TIME STEP 36, STRESS PERIOD 2
 UBUDSV SAVING "FLOW LOWER FACE " ON UNIT 34 AT TIME STEP 36, STRESS PERIOD 2
 UBUDSV SAVING "           WELLS" ON UNIT 34 AT TIME STEP 36, STRESS PERIOD 2

 HEAD WILL BE SAVED ON UNIT   35 AT END OF TIME STEP    36 IN STRESS PERIOD      2
 
 SOLVING FOR HEAD 
     8 ITERATIONS FOR TIME STEP  37 IN STRESS PERIOD    2

 MAXIMUM HEAD CHANGE FOR EACH ITERATION:

    HEAD CHANGE   HEAD CHANGE   HEAD CHANGE   HEAD CHANGE   HEAD CHANGE
  LAYER,ROW,COL LAYER,ROW,COL LAYER,ROW,COL LAYER,ROW,COL LAYER,ROW,COL
 ----------------------------------------------------------------------
    -0.1932       -0.7722E-01   -0.7070E-01   -0.9908E-02   -0.5568E-02
  (  1,  9, 10) (  3, 10, 13) (  4, 10, 10) (  4, 12, 15) (  4, 14, 14)
    -0.1371E-02   -0.3025E-03   -0.6997E-04
  (  4, 14, 14) (  3, 16, 13) (  4, 17, 13)



Solver Convergence Information:
                              HClose:  6.9968996E-5
                              RClose:  0.0326194
                           L2-RClose:  0.0892428
                         Rel-Vol-Err:  4.0774238E-11
 

 OUTPUT CONTROL FOR STRESS PERIOD      2   TIME STEP    37
    SAVE BUDGET
    SAVE HEAD FOR ALL LAYERS
 UBUDSV SAVING "         STORAGE" ON UNIT 34 AT TIME STEP 37, STRESS PERIOD 2
 UBUDSV SAVING "   CONSTANT HEAD" ON UNIT 34 AT TIME STEP 37, STRESS PERIOD 2
 UBUDSV SAVING "FLOW RIGHT FACE " ON UNIT 34 AT TIME STEP 37, STRESS PERIOD 2
 UBUDSV SAVING "FLOW FRONT FACE " ON UNIT 34 AT TIME STEP 37, STRESS PERIOD 2
 UBUDSV SAVING "FLOW LOWER FACE " ON UNIT 34 AT TIME STEP 37, STRESS PERIOD 2
 UBUDSV SAVING "           WELLS" ON UNIT 34 AT TIME STEP 37, STRESS PERIOD 2

 HEAD WILL BE SAVED ON UNIT   35 AT END OF TIME STEP    37 IN STRESS PERIOD      2
 
 SOLVING FOR HEAD 
     8 ITERATIONS FOR TIME STEP  38 IN STRESS PERIOD    2

 MAXIMUM HEAD CHANGE FOR EACH ITERATION:

    HEAD CHANGE   HEAD CHANGE   HEAD CHANGE   HEAD CHANGE   HEAD CHANGE
  LAYER,ROW,COL LAYER,ROW,COL LAYER,ROW,COL LAYER,ROW,COL LAYER,ROW,COL
 ----------------------------------------------------------------------
    -0.1914       -0.7679E-01   -0.7013E-01   -0.9862E-02   -0.5549E-02
  (  1,  9, 10) (  3, 11, 14) (  4, 10, 10) (  4, 12, 15) (  4, 14, 14)
    -0.1366E-02   -0.3016E-03   -0.6982E-04
  (  4, 14, 14) (  3, 16, 13) (  4, 17, 13)



Solver Convergence Information:
                              HClose:  6.9817270E-5
                              RClose:  0.0324929
                           L2-RClose:  0.0889549
                         Rel-Vol-Err:  4.0616106E-11
 

 OUTPUT CONTROL FOR STRESS PERIOD      2   TIME STEP    38
    SAVE BUDGET
    SAVE HEAD FOR ALL LAYERS
 UBUDSV SAVING "         STORAGE" ON UNIT 34 AT TIME STEP 38, STRESS PERIOD 2
 UBUDSV SAVING "   CONSTANT HEAD" ON UNIT 34 AT TIME STEP 38, STRESS PERIOD 2
 UBUDSV SAVING "FLOW RIGHT FACE " ON UNIT 34 AT TIME STEP 38, STRESS PERIOD 2
 UBUDSV SAVING "FLOW FRONT FACE " ON UNIT 34 AT TIME STEP 38, STRESS PERIOD 2
 UBUDSV SAVING "FLOW LOWER FACE " ON UNIT 34 AT TIME STEP 38, STRESS PERIOD 2
 UBUDSV SAVING "           WELLS" ON UNIT 34 AT TIME STEP 38, STRESS PERIOD 2

 HEAD WILL BE SAVED ON UNIT   35 AT END OF TIME STEP    38 IN STRESS PERIOD      2
 
 SOLVING FOR HEAD 
     8 ITERATIONS FOR TIME STEP  39 IN STRESS PERIOD    2

 MAXIMUM HEAD CHANGE FOR EACH ITERATION:

    HEAD CHANGE   HEAD CHANGE   HEAD CHANGE   HEAD CHANGE   HEAD CHANGE
  LAYER,ROW,COL LAYER,ROW,COL LAYER,ROW,COL LAYER,ROW,COL LAYER,ROW,COL
 ----------------------------------------------------------------------
    -0.1897       -0.7640E-01   -0.6960E-01   -0.9814E-02   -0.5529E-02
  (  1,  9, 10) (  3, 11, 14) (  4, 10, 10) (  4, 12, 15) (  4, 14, 14)
    -0.1361E-02   -0.3007E-03   -0.6966E-04
  (  4, 14, 14) (  3, 16, 13) (  4, 17, 13)



Solver Convergence Information:
                              HClose:  6.9662481E-5
                              RClose:  0.0323839
                           L2-RClose:  0.0887318
                         Rel-Vol-Err:  4.0479835E-11
 

 OUTPUT CONTROL FOR STRESS PERIOD      2   TIME STEP    39
    SAVE BUDGET
    SAVE HEAD FOR ALL LAYERS
 UBUDSV SAVING "         STORAGE" ON UNIT 34 AT TIME STEP 39, STRESS PERIOD 2
 UBUDSV SAVING "   CONSTANT HEAD" ON UNIT 34 AT TIME STEP 39, STRESS PERIOD 2
 UBUDSV SAVING "FLOW RIGHT FACE " ON UNIT 34 AT TIME STEP 39, STRESS PERIOD 2
 UBUDSV SAVING "FLOW FRONT FACE " ON UNIT 34 AT TIME STEP 39, STRESS PERIOD 2
 UBUDSV SAVING "FLOW LOWER FACE " ON UNIT 34 AT TIME STEP 39, STRESS PERIOD 2
 UBUDSV SAVING "           WELLS" ON UNIT 34 AT TIME STEP 39, STRESS PERIOD 2

 HEAD WILL BE SAVED ON UNIT   35 AT END OF TIME STEP    39 IN STRESS PERIOD      2
 
 SOLVING FOR HEAD 
     8 ITERATIONS FOR TIME STEP  40 IN STRESS PERIOD    2

 MAXIMUM HEAD CHANGE FOR EACH ITERATION:

    HEAD CHANGE   HEAD CHANGE   HEAD CHANGE   HEAD CHANGE   HEAD CHANGE
  LAYER,ROW,COL LAYER,ROW,COL LAYER,ROW,COL LAYER,ROW,COL LAYER,ROW,COL
 ----------------------------------------------------------------------
    -0.1881       -0.7601E-01   -0.6908E-01   -0.9778E-02   -0.5498E-02
  (  1,  9, 10) (  3, 11, 14) (  4, 10, 10) (  4, 12, 15) (  4, 14, 14)
    -0.1355E-02   -0.2995E-03   -0.6939E-04
  (  4, 14, 14) (  3, 16, 13) (  4, 17, 13)



Solver Convergence Information:
                              HClose:  6.9393553E-5
                              RClose:  0.0321895
                           L2-RClose:  0.0883673
                         Rel-Vol-Err:  4.0236827E-11
 

 OUTPUT CONTROL FOR STRESS PERIOD      2   TIME STEP    40
    SAVE BUDGET
    SAVE HEAD FOR ALL LAYERS
 UBUDSV SAVING "         STORAGE" ON UNIT 34 AT TIME STEP 40, STRESS PERIOD 2
 UBUDSV SAVING "   CONSTANT HEAD" ON UNIT 34 AT TIME STEP 40, STRESS PERIOD 2
 UBUDSV SAVING "FLOW RIGHT FACE " ON UNIT 34 AT TIME STEP 40, STRESS PERIOD 2
 UBUDSV SAVING "FLOW FRONT FACE " ON UNIT 34 AT TIME STEP 40, STRESS PERIOD 2
 UBUDSV SAVING "FLOW LOWER FACE " ON UNIT 34 AT TIME STEP 40, STRESS PERIOD 2
 UBUDSV SAVING "           WELLS" ON UNIT 34 AT TIME STEP 40, STRESS PERIOD 2

 HEAD WILL BE SAVED ON UNIT   35 AT END OF TIME STEP    40 IN STRESS PERIOD      2
 
 SOLVING FOR HEAD 
     8 ITERATIONS FOR TIME STEP  41 IN STRESS PERIOD    2

 MAXIMUM HEAD CHANGE FOR EACH ITERATION:

    HEAD CHANGE   HEAD CHANGE   HEAD CHANGE   HEAD CHANGE   HEAD CHANGE
  LAYER,ROW,COL LAYER,ROW,COL LAYER,ROW,COL LAYER,ROW,COL LAYER,ROW,COL
 ----------------------------------------------------------------------
    -0.1866       -0.7561E-01   -0.6859E-01   -0.9730E-02   -0.5477E-02
  (  1,  9, 10) (  3, 11, 14) (  4, 10, 10) (  4, 12, 15) (  4, 14, 14)
    -0.1349E-02   -0.2985E-03   -0.6920E-04
  (  4, 14, 14) (  3, 16, 13) (  4, 17, 13)



Solver Convergence Information:
                              HClose:  6.9198079E-5
                              RClose:  0.0320576
                           L2-RClose:  0.0880641
                         Rel-Vol-Err:  4.0071983E-11
 

 OUTPUT CONTROL FOR STRESS PERIOD      2   TIME STEP    41
    SAVE BUDGET
    SAVE HEAD FOR ALL LAYERS
 UBUDSV SAVING "         STORAGE" ON UNIT 34 AT TIME STEP 41, STRESS PERIOD 2
 UBUDSV SAVING "   CONSTANT HEAD" ON UNIT 34 AT TIME STEP 41, STRESS PERIOD 2
 UBUDSV SAVING "FLOW RIGHT FACE " ON UNIT 34 AT TIME STEP 41, STRESS PERIOD 2
 UBUDSV SAVING "FLOW FRONT FACE " ON UNIT 34 AT TIME STEP 41, STRESS PERIOD 2
 UBUDSV SAVING "FLOW LOWER FACE " ON UNIT 34 AT TIME STEP 41, STRESS PERIOD 2
 UBUDSV SAVING "           WELLS" ON UNIT 34 AT TIME STEP 41, STRESS PERIOD 2

 HEAD WILL BE SAVED ON UNIT   35 AT END OF TIME STEP    41 IN STRESS PERIOD      2
 
 SOLVING FOR HEAD 
     8 ITERATIONS FOR TIME STEP  42 IN STRESS PERIOD    2

 MAXIMUM HEAD CHANGE FOR EACH ITERATION:

    HEAD CHANGE   HEAD CHANGE   HEAD CHANGE   HEAD CHANGE   HEAD CHANGE
  LAYER,ROW,COL LAYER,ROW,COL LAYER,ROW,COL LAYER,ROW,COL LAYER,ROW,COL
 ----------------------------------------------------------------------
    -0.1852       -0.7521E-01   -0.6813E-01   -0.9682E-02   -0.5455E-02
  (  1,  9, 10) (  3, 11, 14) (  4, 10, 10) (  4, 12, 15) (  4, 14, 14)
    -0.1344E-02   -0.2974E-03   -0.6899E-04
  (  4, 14, 14) (  3, 16, 13) (  4, 17, 13)



Solver Convergence Information:
                              HClose:  6.8985983E-5
                              RClose:  0.0319183
                           L2-RClose:  0.0877366
                         Rel-Vol-Err:  3.9897901E-11
 

 OUTPUT CONTROL FOR STRESS PERIOD      2   TIME STEP    42
    SAVE BUDGET
    SAVE HEAD FOR ALL LAYERS
 UBUDSV SAVING "         STORAGE" ON UNIT 34 AT TIME STEP 42, STRESS PERIOD 2
 UBUDSV SAVING "   CONSTANT HEAD" ON UNIT 34 AT TIME STEP 42, STRESS PERIOD 2
 UBUDSV SAVING "FLOW RIGHT FACE " ON UNIT 34 AT TIME STEP 42, STRESS PERIOD 2
 UBUDSV SAVING "FLOW FRONT FACE " ON UNIT 34 AT TIME STEP 42, STRESS PERIOD 2
 UBUDSV SAVING "FLOW LOWER FACE " ON UNIT 34 AT TIME STEP 42, STRESS PERIOD 2
 UBUDSV SAVING "           WELLS" ON UNIT 34 AT TIME STEP 42, STRESS PERIOD 2

 HEAD WILL BE SAVED ON UNIT   35 AT END OF TIME STEP    42 IN STRESS PERIOD      2
 
 SOLVING FOR HEAD 
     8 ITERATIONS FOR TIME STEP  43 IN STRESS PERIOD    2

 MAXIMUM HEAD CHANGE FOR EACH ITERATION:

    HEAD CHANGE   HEAD CHANGE   HEAD CHANGE   HEAD CHANGE   HEAD CHANGE
  LAYER,ROW,COL LAYER,ROW,COL LAYER,ROW,COL LAYER,ROW,COL LAYER,ROW,COL
 ----------------------------------------------------------------------
    -0.1839       -0.7481E-01   -0.6769E-01   -0.9633E-02   -0.5433E-02
  (  1,  9, 10) (  3, 11, 14) (  4, 10, 10) (  4, 12, 15) (  4, 14, 14)
    -0.1338E-02   -0.2963E-03   -0.6876E-04
  (  4, 14, 14) (  3, 16, 13) (  4, 17, 13)



Solver Convergence Information:
                              HClose:  6.8761521E-5
                              RClose:  0.0317761
                           L2-RClose:  0.0874003
                         Rel-Vol-Err:  3.9720077E-11
 

 OUTPUT CONTROL FOR STRESS PERIOD      2   TIME STEP    43
    SAVE BUDGET
    SAVE HEAD FOR ALL LAYERS
 UBUDSV SAVING "         STORAGE" ON UNIT 34 AT TIME STEP 43, STRESS PERIOD 2
 UBUDSV SAVING "   CONSTANT HEAD" ON UNIT 34 AT TIME STEP 43, STRESS PERIOD 2
 UBUDSV SAVING "FLOW RIGHT FACE " ON UNIT 34 AT TIME STEP 43, STRESS PERIOD 2
 UBUDSV SAVING "FLOW FRONT FACE " ON UNIT 34 AT TIME STEP 43, STRESS PERIOD 2
 UBUDSV SAVING "FLOW LOWER FACE " ON UNIT 34 AT TIME STEP 43, STRESS PERIOD 2
 UBUDSV SAVING "           WELLS" ON UNIT 34 AT TIME STEP 43, STRESS PERIOD 2

 HEAD WILL BE SAVED ON UNIT   35 AT END OF TIME STEP    43 IN STRESS PERIOD      2
 
 SOLVING FOR HEAD 
     8 ITERATIONS FOR TIME STEP  44 IN STRESS PERIOD    2

 MAXIMUM HEAD CHANGE FOR EACH ITERATION:

    HEAD CHANGE   HEAD CHANGE   HEAD CHANGE   HEAD CHANGE   HEAD CHANGE
  LAYER,ROW,COL LAYER,ROW,COL LAYER,ROW,COL LAYER,ROW,COL LAYER,ROW,COL
 ----------------------------------------------------------------------
    -0.1827       -0.7441E-01   -0.6689E-01   -0.9586E-02   -0.5413E-02
  (  1,  9, 10) (  3, 11, 14) (  4,  8, 14) (  4, 12, 15) (  4, 14, 14)
    -0.1332E-02   -0.2952E-03   -0.6854E-04
  (  4, 14, 14) (  3, 16, 13) (  4, 17, 13)



Solver Convergence Information:
                              HClose:  6.8542422E-5
                              RClose:  0.0316492
                           L2-RClose:  0.0870548
                         Rel-Vol-Err:  3.9561485E-11
 

 OUTPUT CONTROL FOR STRESS PERIOD      2   TIME STEP    44
    SAVE BUDGET
    SAVE HEAD FOR ALL LAYERS
 UBUDSV SAVING "         STORAGE" ON UNIT 34 AT TIME STEP 44, STRESS PERIOD 2
 UBUDSV SAVING "   CONSTANT HEAD" ON UNIT 34 AT TIME STEP 44, STRESS PERIOD 2
 UBUDSV SAVING "FLOW RIGHT FACE " ON UNIT 34 AT TIME STEP 44, STRESS PERIOD 2
 UBUDSV SAVING "FLOW FRONT FACE " ON UNIT 34 AT TIME STEP 44, STRESS PERIOD 2
 UBUDSV SAVING "FLOW LOWER FACE " ON UNIT 34 AT TIME STEP 44, STRESS PERIOD 2
 UBUDSV SAVING "           WELLS" ON UNIT 34 AT TIME STEP 44, STRESS PERIOD 2

 HEAD WILL BE SAVED ON UNIT   35 AT END OF TIME STEP    44 IN STRESS PERIOD      2
 
 SOLVING FOR HEAD 
     8 ITERATIONS FOR TIME STEP  45 IN STRESS PERIOD    2

 MAXIMUM HEAD CHANGE FOR EACH ITERATION:

    HEAD CHANGE   HEAD CHANGE   HEAD CHANGE   HEAD CHANGE   HEAD CHANGE
  LAYER,ROW,COL LAYER,ROW,COL LAYER,ROW,COL LAYER,ROW,COL LAYER,ROW,COL
 ----------------------------------------------------------------------
    -0.1813       -0.7401E-01   -0.6653E-01   -0.9539E-02   -0.5392E-02
  (  1,  9, 10) (  3, 11, 14) (  4,  8, 14) (  4, 12, 15) (  4, 14, 14)
    -0.1326E-02   -0.2941E-03   -0.6831E-04
  (  4, 14, 14) (  3, 16, 13) (  4, 17, 13)



Solver Convergence Information:
                              HClose:  6.8305876E-5
                              RClose:  0.0315178
                           L2-RClose:  0.0867253
                         Rel-Vol-Err:  3.9397215E-11
 

 OUTPUT CONTROL FOR STRESS PERIOD      2   TIME STEP    45
    SAVE BUDGET
    SAVE HEAD FOR ALL LAYERS
 UBUDSV SAVING "         STORAGE" ON UNIT 34 AT TIME STEP 45, STRESS PERIOD 2
 UBUDSV SAVING "   CONSTANT HEAD" ON UNIT 34 AT TIME STEP 45, STRESS PERIOD 2
 UBUDSV SAVING "FLOW RIGHT FACE " ON UNIT 34 AT TIME STEP 45, STRESS PERIOD 2
 UBUDSV SAVING "FLOW FRONT FACE " ON UNIT 34 AT TIME STEP 45, STRESS PERIOD 2
 UBUDSV SAVING "FLOW LOWER FACE " ON UNIT 34 AT TIME STEP 45, STRESS PERIOD 2
 UBUDSV SAVING "           WELLS" ON UNIT 34 AT TIME STEP 45, STRESS PERIOD 2

 HEAD WILL BE SAVED ON UNIT   35 AT END OF TIME STEP    45 IN STRESS PERIOD      2
 
 SOLVING FOR HEAD 
     8 ITERATIONS FOR TIME STEP  46 IN STRESS PERIOD    2

 MAXIMUM HEAD CHANGE FOR EACH ITERATION:

    HEAD CHANGE   HEAD CHANGE   HEAD CHANGE   HEAD CHANGE   HEAD CHANGE
  LAYER,ROW,COL LAYER,ROW,COL LAYER,ROW,COL LAYER,ROW,COL LAYER,ROW,COL
 ----------------------------------------------------------------------
    -0.1800       -0.7361E-01   -0.6617E-01   -0.9490E-02   -0.5368E-02
  (  1,  9, 10) (  3, 11, 14) (  4,  8, 14) (  4, 12, 15) (  4, 14, 14)
    -0.1320E-02   -0.2929E-03   -0.6805E-04
  (  4, 14, 14) (  3, 16, 13) (  4, 17, 13)



Solver Convergence Information:
                              HClose:  6.8050447E-5
                              RClose:  0.0313608
                           L2-RClose:  0.0863556
                         Rel-Vol-Err:  3.9201000E-11
 

 OUTPUT CONTROL FOR STRESS PERIOD      2   TIME STEP    46
    SAVE BUDGET
    SAVE HEAD FOR ALL LAYERS
 UBUDSV SAVING "         STORAGE" ON UNIT 34 AT TIME STEP 46, STRESS PERIOD 2
 UBUDSV SAVING "   CONSTANT HEAD" ON UNIT 34 AT TIME STEP 46, STRESS PERIOD 2
 UBUDSV SAVING "FLOW RIGHT FACE " ON UNIT 34 AT TIME STEP 46, STRESS PERIOD 2
 UBUDSV SAVING "FLOW FRONT FACE " ON UNIT 34 AT TIME STEP 46, STRESS PERIOD 2
 UBUDSV SAVING "FLOW LOWER FACE " ON UNIT 34 AT TIME STEP 46, STRESS PERIOD 2
 UBUDSV SAVING "           WELLS" ON UNIT 34 AT TIME STEP 46, STRESS PERIOD 2

 HEAD WILL BE SAVED ON UNIT   35 AT END OF TIME STEP    46 IN STRESS PERIOD      2
 
 SOLVING FOR HEAD 
     8 ITERATIONS FOR TIME STEP  47 IN STRESS PERIOD    2

 MAXIMUM HEAD CHANGE FOR EACH ITERATION:

    HEAD CHANGE   HEAD CHANGE   HEAD CHANGE   HEAD CHANGE   HEAD CHANGE
  LAYER,ROW,COL LAYER,ROW,COL LAYER,ROW,COL LAYER,ROW,COL LAYER,ROW,COL
 ----------------------------------------------------------------------
    -0.1790       -0.7321E-01   -0.6584E-01   -0.9443E-02   -0.5340E-02
  (  1,  9, 10) (  3, 11, 14) (  4,  8, 14) (  4, 12, 15) (  4, 14, 14)
    -0.1314E-02   -0.2915E-03   -0.6777E-04
  (  4, 14, 14) (  3, 16, 13) (  4, 17, 13)



Solver Convergence Information:
                              HClose:  6.7766837E-5
                              RClose:  0.0311631
                           L2-RClose:  0.0858518
                         Rel-Vol-Err:  3.8953847E-11
 

 OUTPUT CONTROL FOR STRESS PERIOD      2   TIME STEP    47
    SAVE BUDGET
    SAVE HEAD FOR ALL LAYERS
 UBUDSV SAVING "         STORAGE" ON UNIT 34 AT TIME STEP 47, STRESS PERIOD 2
 UBUDSV SAVING "   CONSTANT HEAD" ON UNIT 34 AT TIME STEP 47, STRESS PERIOD 2
 UBUDSV SAVING "FLOW RIGHT FACE " ON UNIT 34 AT TIME STEP 47, STRESS PERIOD 2
 UBUDSV SAVING "FLOW FRONT FACE " ON UNIT 34 AT TIME STEP 47, STRESS PERIOD 2
 UBUDSV SAVING "FLOW LOWER FACE " ON UNIT 34 AT TIME STEP 47, STRESS PERIOD 2
 UBUDSV SAVING "           WELLS" ON UNIT 34 AT TIME STEP 47, STRESS PERIOD 2

 HEAD WILL BE SAVED ON UNIT   35 AT END OF TIME STEP    47 IN STRESS PERIOD      2
 
 SOLVING FOR HEAD 
     8 ITERATIONS FOR TIME STEP  48 IN STRESS PERIOD    2

 MAXIMUM HEAD CHANGE FOR EACH ITERATION:

    HEAD CHANGE   HEAD CHANGE   HEAD CHANGE   HEAD CHANGE   HEAD CHANGE
  LAYER,ROW,COL LAYER,ROW,COL LAYER,ROW,COL LAYER,ROW,COL LAYER,ROW,COL
 ----------------------------------------------------------------------
    -0.1782       -0.7281E-01   -0.6551E-01   -0.9394E-02   -0.5316E-02
  (  1,  9, 10) (  3, 11, 14) (  4,  8, 14) (  4, 12, 15) (  4, 14, 14)
    -0.1309E-02   -0.2902E-03   -0.6750E-04
  (  4, 14, 14) (  3, 16, 13) (  4, 17, 13)



Solver Convergence Information:
                              HClose:  6.7498059E-5
                              RClose:  0.0310054
                           L2-RClose:  0.0854806
                         Rel-Vol-Err:  3.8756797E-11
 

 OUTPUT CONTROL FOR STRESS PERIOD      2   TIME STEP    48
    SAVE BUDGET
    SAVE HEAD FOR ALL LAYERS
 UBUDSV SAVING "         STORAGE" ON UNIT 34 AT TIME STEP 48, STRESS PERIOD 2
 UBUDSV SAVING "   CONSTANT HEAD" ON UNIT 34 AT TIME STEP 48, STRESS PERIOD 2
 UBUDSV SAVING "FLOW RIGHT FACE " ON UNIT 34 AT TIME STEP 48, STRESS PERIOD 2
 UBUDSV SAVING "FLOW FRONT FACE " ON UNIT 34 AT TIME STEP 48, STRESS PERIOD 2
 UBUDSV SAVING "FLOW LOWER FACE " ON UNIT 34 AT TIME STEP 48, STRESS PERIOD 2
 UBUDSV SAVING "           WELLS" ON UNIT 34 AT TIME STEP 48, STRESS PERIOD 2

 HEAD WILL BE SAVED ON UNIT   35 AT END OF TIME STEP    48 IN STRESS PERIOD      2
 
 SOLVING FOR HEAD 
     8 ITERATIONS FOR TIME STEP  49 IN STRESS PERIOD    2

 MAXIMUM HEAD CHANGE FOR EACH ITERATION:

    HEAD CHANGE   HEAD CHANGE   HEAD CHANGE   HEAD CHANGE   HEAD CHANGE
  LAYER,ROW,COL LAYER,ROW,COL LAYER,ROW,COL LAYER,ROW,COL LAYER,ROW,COL
 ----------------------------------------------------------------------
    -0.1776       -0.7242E-01   -0.6521E-01   -0.9346E-02   -0.5292E-02
  (  1,  9, 10) (  3, 11, 14) (  4,  5, 13) (  4, 12, 15) (  4, 14, 14)
    -0.1303E-02   -0.2890E-03   -0.6723E-04
  (  4, 14, 14) (  3, 16, 13) (  4, 17, 13)



Solver Convergence Information:
                              HClose:  6.7225220E-5
                              RClose:  0.0308487
                           L2-RClose:  0.0851201
                         Rel-Vol-Err:  3.8560918E-11
 

 OUTPUT CONTROL FOR STRESS PERIOD      2   TIME STEP    49
    SAVE BUDGET
    SAVE HEAD FOR ALL LAYERS
 UBUDSV SAVING "         STORAGE" ON UNIT 34 AT TIME STEP 49, STRESS PERIOD 2
 UBUDSV SAVING "   CONSTANT HEAD" ON UNIT 34 AT TIME STEP 49, STRESS PERIOD 2
 UBUDSV SAVING "FLOW RIGHT FACE " ON UNIT 34 AT TIME STEP 49, STRESS PERIOD 2
 UBUDSV SAVING "FLOW FRONT FACE " ON UNIT 34 AT TIME STEP 49, STRESS PERIOD 2
 UBUDSV SAVING "FLOW LOWER FACE " ON UNIT 34 AT TIME STEP 49, STRESS PERIOD 2
 UBUDSV SAVING "           WELLS" ON UNIT 34 AT TIME STEP 49, STRESS PERIOD 2

 HEAD WILL BE SAVED ON UNIT   35 AT END OF TIME STEP    49 IN STRESS PERIOD      2
 
 SOLVING FOR HEAD 
     8 ITERATIONS FOR TIME STEP  50 IN STRESS PERIOD    2

 MAXIMUM HEAD CHANGE FOR EACH ITERATION:

    HEAD CHANGE   HEAD CHANGE   HEAD CHANGE   HEAD CHANGE   HEAD CHANGE
  LAYER,ROW,COL LAYER,ROW,COL LAYER,ROW,COL LAYER,ROW,COL LAYER,ROW,COL
 ----------------------------------------------------------------------
    -0.1770       -0.7203E-01   -0.6504E-01   -0.9295E-02   -0.5268E-02
  (  1,  9, 10) (  3, 11, 14) (  4,  5, 13) (  4, 12, 15) (  4, 14, 14)
    -0.1297E-02   -0.2880E-03   -0.6700E-04
  (  4, 14, 14) (  3, 16, 13) (  4, 17, 13)



Solver Convergence Information:
                              HClose:  6.6995876E-5
                              RClose:  0.0307015
                           L2-RClose:  0.0848653
                         Rel-Vol-Err:  3.8376859E-11
 

 OUTPUT CONTROL FOR STRESS PERIOD      2   TIME STEP    50
    SAVE BUDGET
    SAVE HEAD FOR ALL LAYERS
 UBUDSV SAVING "         STORAGE" ON UNIT 34 AT TIME STEP 50, STRESS PERIOD 2
 UBUDSV SAVING "   CONSTANT HEAD" ON UNIT 34 AT TIME STEP 50, STRESS PERIOD 2
 UBUDSV SAVING "FLOW RIGHT FACE " ON UNIT 34 AT TIME STEP 50, STRESS PERIOD 2
 UBUDSV SAVING "FLOW FRONT FACE " ON UNIT 34 AT TIME STEP 50, STRESS PERIOD 2
 UBUDSV SAVING "FLOW LOWER FACE " ON UNIT 34 AT TIME STEP 50, STRESS PERIOD 2
 UBUDSV SAVING "           WELLS" ON UNIT 34 AT TIME STEP 50, STRESS PERIOD 2

 HEAD WILL BE SAVED ON UNIT   35 AT END OF TIME STEP    50 IN STRESS PERIOD      2
 
 SOLVING FOR HEAD 
     8 ITERATIONS FOR TIME STEP  51 IN STRESS PERIOD    2

 MAXIMUM HEAD CHANGE FOR EACH ITERATION:

    HEAD CHANGE   HEAD CHANGE   HEAD CHANGE   HEAD CHANGE   HEAD CHANGE
  LAYER,ROW,COL LAYER,ROW,COL LAYER,ROW,COL LAYER,ROW,COL LAYER,ROW,COL
 ----------------------------------------------------------------------
    -0.1762       -0.7165E-01   -0.6485E-01   -0.9250E-02   -0.5243E-02
  (  1,  9, 10) (  3, 11, 14) (  4,  5, 13) (  4, 12, 15) (  4, 14, 14)
    -0.1290E-02   -0.2864E-03   -0.6667E-04
  (  4, 14, 14) (  3, 16, 13) (  4, 17, 13)



Solver Convergence Information:
                              HClose:  6.6672682E-5
                              RClose:  0.0304798
                           L2-RClose:  0.0844210
                         Rel-Vol-Err:  3.8099700E-11
 

 OUTPUT CONTROL FOR STRESS PERIOD      2   TIME STEP    51
    SAVE BUDGET
    SAVE HEAD FOR ALL LAYERS
 UBUDSV SAVING "         STORAGE" ON UNIT 34 AT TIME STEP 51, STRESS PERIOD 2
 UBUDSV SAVING "   CONSTANT HEAD" ON UNIT 34 AT TIME STEP 51, STRESS PERIOD 2
 UBUDSV SAVING "FLOW RIGHT FACE " ON UNIT 34 AT TIME STEP 51, STRESS PERIOD 2
 UBUDSV SAVING "FLOW FRONT FACE " ON UNIT 34 AT TIME STEP 51, STRESS PERIOD 2
 UBUDSV SAVING "FLOW LOWER FACE " ON UNIT 34 AT TIME STEP 51, STRESS PERIOD 2
 UBUDSV SAVING "           WELLS" ON UNIT 34 AT TIME STEP 51, STRESS PERIOD 2

 HEAD WILL BE SAVED ON UNIT   35 AT END OF TIME STEP    51 IN STRESS PERIOD      2
 
 SOLVING FOR HEAD 
     8 ITERATIONS FOR TIME STEP  52 IN STRESS PERIOD    2

 MAXIMUM HEAD CHANGE FOR EACH ITERATION:

    HEAD CHANGE   HEAD CHANGE   HEAD CHANGE   HEAD CHANGE   HEAD CHANGE
  LAYER,ROW,COL LAYER,ROW,COL LAYER,ROW,COL LAYER,ROW,COL LAYER,ROW,COL
 ----------------------------------------------------------------------
    -0.1755       -0.7126E-01   -0.6467E-01   -0.9202E-02   -0.5221E-02
  (  1,  9, 10) (  3, 11, 14) (  4,  5, 13) (  4, 12, 15) (  4, 14, 14)
    -0.1285E-02   -0.2852E-03   -0.6640E-04
  (  4, 14, 14) (  3, 16, 13) (  4, 17, 13)



Solver Convergence Information:
                              HClose:  6.6398277E-5
                              RClose:  0.0303309
                           L2-RClose:  0.0841038
                         Rel-Vol-Err:  3.7913652E-11
 

 OUTPUT CONTROL FOR STRESS PERIOD      2   TIME STEP    52
    SAVE BUDGET
    SAVE HEAD FOR ALL LAYERS
 UBUDSV SAVING "         STORAGE" ON UNIT 34 AT TIME STEP 52, STRESS PERIOD 2
 UBUDSV SAVING "   CONSTANT HEAD" ON UNIT 34 AT TIME STEP 52, STRESS PERIOD 2
 UBUDSV SAVING "FLOW RIGHT FACE " ON UNIT 34 AT TIME STEP 52, STRESS PERIOD 2
 UBUDSV SAVING "FLOW FRONT FACE " ON UNIT 34 AT TIME STEP 52, STRESS PERIOD 2
 UBUDSV SAVING "FLOW LOWER FACE " ON UNIT 34 AT TIME STEP 52, STRESS PERIOD 2
 UBUDSV SAVING "           WELLS" ON UNIT 34 AT TIME STEP 52, STRESS PERIOD 2

 HEAD WILL BE SAVED ON UNIT   35 AT END OF TIME STEP    52 IN STRESS PERIOD      2
 
 SOLVING FOR HEAD 
     8 ITERATIONS FOR TIME STEP  53 IN STRESS PERIOD    2

 MAXIMUM HEAD CHANGE FOR EACH ITERATION:

    HEAD CHANGE   HEAD CHANGE   HEAD CHANGE   HEAD CHANGE   HEAD CHANGE
  LAYER,ROW,COL LAYER,ROW,COL LAYER,ROW,COL LAYER,ROW,COL LAYER,ROW,COL
 ----------------------------------------------------------------------
    -0.1747       -0.7088E-01   -0.6449E-01   -0.9156E-02   -0.5199E-02
  (  1,  9, 10) (  3, 11, 14) (  4,  5, 13) (  4, 12, 15) (  4, 14, 14)
    -0.1278E-02   -0.2840E-03   -0.6612E-04
  (  4, 14, 14) (  3, 16, 13) (  4, 17, 13)



Solver Convergence Information:
                              HClose:  6.6116604E-5
                              RClose:  0.0302243
                           L2-RClose:  0.0838063
                         Rel-Vol-Err:  3.7780347E-11
 

 OUTPUT CONTROL FOR STRESS PERIOD      2   TIME STEP    53
    SAVE BUDGET
    SAVE HEAD FOR ALL LAYERS
 UBUDSV SAVING "         STORAGE" ON UNIT 34 AT TIME STEP 53, STRESS PERIOD 2
 UBUDSV SAVING "   CONSTANT HEAD" ON UNIT 34 AT TIME STEP 53, STRESS PERIOD 2
 UBUDSV SAVING "FLOW RIGHT FACE " ON UNIT 34 AT TIME STEP 53, STRESS PERIOD 2
 UBUDSV SAVING "FLOW FRONT FACE " ON UNIT 34 AT TIME STEP 53, STRESS PERIOD 2
 UBUDSV SAVING "FLOW LOWER FACE " ON UNIT 34 AT TIME STEP 53, STRESS PERIOD 2
 UBUDSV SAVING "           WELLS" ON UNIT 34 AT TIME STEP 53, STRESS PERIOD 2

 HEAD WILL BE SAVED ON UNIT   35 AT END OF TIME STEP    53 IN STRESS PERIOD      2
 
 SOLVING FOR HEAD 
     8 ITERATIONS FOR TIME STEP  54 IN STRESS PERIOD    2

 MAXIMUM HEAD CHANGE FOR EACH ITERATION:

    HEAD CHANGE   HEAD CHANGE   HEAD CHANGE   HEAD CHANGE   HEAD CHANGE
  LAYER,ROW,COL LAYER,ROW,COL LAYER,ROW,COL LAYER,ROW,COL LAYER,ROW,COL
 ----------------------------------------------------------------------
    -0.1741       -0.7051E-01   -0.6433E-01   -0.9110E-02   -0.5175E-02
  (  1,  9, 10) (  3, 11, 14) (  4,  5, 13) (  4, 12, 15) (  4, 14, 14)
    -0.1273E-02   -0.2828E-03   -0.6584E-04
  (  4, 14, 14) (  3, 16, 13) (  4, 17, 13)



Solver Convergence Information:
                              HClose:  6.5836786E-5
                              RClose:  0.0300531
                           L2-RClose:  0.0834504
                         Rel-Vol-Err:  3.7566422E-11
 

 OUTPUT CONTROL FOR STRESS PERIOD      2   TIME STEP    54
    SAVE BUDGET
    SAVE HEAD FOR ALL LAYERS
 UBUDSV SAVING "         STORAGE" ON UNIT 34 AT TIME STEP 54, STRESS PERIOD 2
 UBUDSV SAVING "   CONSTANT HEAD" ON UNIT 34 AT TIME STEP 54, STRESS PERIOD 2
 UBUDSV SAVING "FLOW RIGHT FACE " ON UNIT 34 AT TIME STEP 54, STRESS PERIOD 2
 UBUDSV SAVING "FLOW FRONT FACE " ON UNIT 34 AT TIME STEP 54, STRESS PERIOD 2
 UBUDSV SAVING "FLOW LOWER FACE " ON UNIT 34 AT TIME STEP 54, STRESS PERIOD 2
 UBUDSV SAVING "           WELLS" ON UNIT 34 AT TIME STEP 54, STRESS PERIOD 2

 HEAD WILL BE SAVED ON UNIT   35 AT END OF TIME STEP    54 IN STRESS PERIOD      2
 
 SOLVING FOR HEAD 
     8 ITERATIONS FOR TIME STEP  55 IN STRESS PERIOD    2

 MAXIMUM HEAD CHANGE FOR EACH ITERATION:

    HEAD CHANGE   HEAD CHANGE   HEAD CHANGE   HEAD CHANGE   HEAD CHANGE
  LAYER,ROW,COL LAYER,ROW,COL LAYER,ROW,COL LAYER,ROW,COL LAYER,ROW,COL
 ----------------------------------------------------------------------
    -0.1737       -0.7014E-01   -0.6417E-01   -0.9063E-02   -0.5150E-02
  (  1,  9, 10) (  3, 11, 14) (  4,  5, 13) (  4, 12, 15) (  4, 14, 14)
    -0.1266E-02   -0.2815E-03   -0.6554E-04
  (  4, 14, 14) (  3, 16, 13) (  4, 17, 13)



Solver Convergence Information:
                              HClose:  6.5537949E-5
                              RClose:  0.0298919
                           L2-RClose:  0.0831581
                         Rel-Vol-Err:  3.7364922E-11
 

 OUTPUT CONTROL FOR STRESS PERIOD      2   TIME STEP    55
    SAVE BUDGET
    SAVE HEAD FOR ALL LAYERS
 UBUDSV SAVING "         STORAGE" ON UNIT 34 AT TIME STEP 55, STRESS PERIOD 2
 UBUDSV SAVING "   CONSTANT HEAD" ON UNIT 34 AT TIME STEP 55, STRESS PERIOD 2
 UBUDSV SAVING "FLOW RIGHT FACE " ON UNIT 34 AT TIME STEP 55, STRESS PERIOD 2
 UBUDSV SAVING "FLOW FRONT FACE " ON UNIT 34 AT TIME STEP 55, STRESS PERIOD 2
 UBUDSV SAVING "FLOW LOWER FACE " ON UNIT 34 AT TIME STEP 55, STRESS PERIOD 2
 UBUDSV SAVING "           WELLS" ON UNIT 34 AT TIME STEP 55, STRESS PERIOD 2

 HEAD WILL BE SAVED ON UNIT   35 AT END OF TIME STEP    55 IN STRESS PERIOD      2
 
 SOLVING FOR HEAD 
     8 ITERATIONS FOR TIME STEP  56 IN STRESS PERIOD    2

 MAXIMUM HEAD CHANGE FOR EACH ITERATION:

    HEAD CHANGE   HEAD CHANGE   HEAD CHANGE   HEAD CHANGE   HEAD CHANGE
  LAYER,ROW,COL LAYER,ROW,COL LAYER,ROW,COL LAYER,ROW,COL LAYER,ROW,COL
 ----------------------------------------------------------------------
    -0.1733       -0.6978E-01   -0.6401E-01   -0.9017E-02   -0.5126E-02
  (  1,  9, 10) (  3, 11, 14) (  4,  5, 13) (  4, 12, 15) (  4, 14, 14)
    -0.1261E-02   -0.2802E-03   -0.6525E-04
  (  4, 14, 14) (  3, 16, 13) (  4, 17, 13)



Solver Convergence Information:
                              HClose:  6.5251460E-5
                              RClose:  0.0297365
                           L2-RClose:  0.0827949
                         Rel-Vol-Err:  3.7170636E-11
 

 OUTPUT CONTROL FOR STRESS PERIOD      2   TIME STEP    56
    SAVE BUDGET
    SAVE HEAD FOR ALL LAYERS
 UBUDSV SAVING "         STORAGE" ON UNIT 34 AT TIME STEP 56, STRESS PERIOD 2
 UBUDSV SAVING "   CONSTANT HEAD" ON UNIT 34 AT TIME STEP 56, STRESS PERIOD 2
 UBUDSV SAVING "FLOW RIGHT FACE " ON UNIT 34 AT TIME STEP 56, STRESS PERIOD 2
 UBUDSV SAVING "FLOW FRONT FACE " ON UNIT 34 AT TIME STEP 56, STRESS PERIOD 2
 UBUDSV SAVING "FLOW LOWER FACE " ON UNIT 34 AT TIME STEP 56, STRESS PERIOD 2
 UBUDSV SAVING "           WELLS" ON UNIT 34 AT TIME STEP 56, STRESS PERIOD 2

 HEAD WILL BE SAVED ON UNIT   35 AT END OF TIME STEP    56 IN STRESS PERIOD      2
 
 SOLVING FOR HEAD 
     8 ITERATIONS FOR TIME STEP  57 IN STRESS PERIOD    2

 MAXIMUM HEAD CHANGE FOR EACH ITERATION:

    HEAD CHANGE   HEAD CHANGE   HEAD CHANGE   HEAD CHANGE   HEAD CHANGE
  LAYER,ROW,COL LAYER,ROW,COL LAYER,ROW,COL LAYER,ROW,COL LAYER,ROW,COL
 ----------------------------------------------------------------------
    -0.1730       -0.6942E-01   -0.6387E-01   -0.8976E-02   -0.5104E-02
  (  1,  9, 10) (  3, 11, 14) (  4,  5, 13) (  4, 12, 15) (  4, 14, 14)
    -0.1255E-02   -0.2789E-03   -0.6496E-04
  (  4, 14, 14) (  3, 16, 13) (  4, 17, 13)



Solver Convergence Information:
                              HClose:  6.4960517E-5
                              RClose:  0.0296164
                           L2-RClose:  0.0823106
                         Rel-Vol-Err:  3.7020513E-11
 

 OUTPUT CONTROL FOR STRESS PERIOD      2   TIME STEP    57
    SAVE BUDGET
    SAVE HEAD FOR ALL LAYERS
 UBUDSV SAVING "         STORAGE" ON UNIT 34 AT TIME STEP 57, STRESS PERIOD 2
 UBUDSV SAVING "   CONSTANT HEAD" ON UNIT 34 AT TIME STEP 57, STRESS PERIOD 2
 UBUDSV SAVING "FLOW RIGHT FACE " ON UNIT 34 AT TIME STEP 57, STRESS PERIOD 2
 UBUDSV SAVING "FLOW FRONT FACE " ON UNIT 34 AT TIME STEP 57, STRESS PERIOD 2
 UBUDSV SAVING "FLOW LOWER FACE " ON UNIT 34 AT TIME STEP 57, STRESS PERIOD 2
 UBUDSV SAVING "           WELLS" ON UNIT 34 AT TIME STEP 57, STRESS PERIOD 2

 HEAD WILL BE SAVED ON UNIT   35 AT END OF TIME STEP    57 IN STRESS PERIOD      2
 
 SOLVING FOR HEAD 
     8 ITERATIONS FOR TIME STEP  58 IN STRESS PERIOD    2

 MAXIMUM HEAD CHANGE FOR EACH ITERATION:

    HEAD CHANGE   HEAD CHANGE   HEAD CHANGE   HEAD CHANGE   HEAD CHANGE
  LAYER,ROW,COL LAYER,ROW,COL LAYER,ROW,COL LAYER,ROW,COL LAYER,ROW,COL
 ----------------------------------------------------------------------
    -0.1725       -0.6907E-01   -0.6372E-01   -0.8931E-02   -0.5081E-02
  (  1,  9, 10) (  3, 11, 14) (  4,  5, 13) (  4, 12, 15) (  4, 14, 14)
    -0.1249E-02   -0.2777E-03   -0.6468E-04
  (  4, 14, 14) (  3, 16, 13) (  4, 17, 13)



Solver Convergence Information:
                              HClose:  6.4675696E-5
                              RClose:  0.0294737
                           L2-RClose:  0.0819451
                         Rel-Vol-Err:  3.6842167E-11
 

 OUTPUT CONTROL FOR STRESS PERIOD      2   TIME STEP    58
    SAVE BUDGET
    SAVE HEAD FOR ALL LAYERS
 UBUDSV SAVING "         STORAGE" ON UNIT 34 AT TIME STEP 58, STRESS PERIOD 2
 UBUDSV SAVING "   CONSTANT HEAD" ON UNIT 34 AT TIME STEP 58, STRESS PERIOD 2
 UBUDSV SAVING "FLOW RIGHT FACE " ON UNIT 34 AT TIME STEP 58, STRESS PERIOD 2
 UBUDSV SAVING "FLOW FRONT FACE " ON UNIT 34 AT TIME STEP 58, STRESS PERIOD 2
 UBUDSV SAVING "FLOW LOWER FACE " ON UNIT 34 AT TIME STEP 58, STRESS PERIOD 2
 UBUDSV SAVING "           WELLS" ON UNIT 34 AT TIME STEP 58, STRESS PERIOD 2

 HEAD WILL BE SAVED ON UNIT   35 AT END OF TIME STEP    58 IN STRESS PERIOD      2
 
 SOLVING FOR HEAD 
     8 ITERATIONS FOR TIME STEP  59 IN STRESS PERIOD    2

 MAXIMUM HEAD CHANGE FOR EACH ITERATION:

    HEAD CHANGE   HEAD CHANGE   HEAD CHANGE   HEAD CHANGE   HEAD CHANGE
  LAYER,ROW,COL LAYER,ROW,COL LAYER,ROW,COL LAYER,ROW,COL LAYER,ROW,COL
 ----------------------------------------------------------------------
    -0.1721       -0.6873E-01   -0.6358E-01   -0.8887E-02   -0.5059E-02
  (  1,  9, 10) (  3, 11, 14) (  4,  5, 13) (  4, 12, 15) (  4, 14, 14)
    -0.1243E-02   -0.2764E-03   -0.6439E-04
  (  4, 14, 14) (  3, 16, 13) (  4, 17, 13)



Solver Convergence Information:
                              HClose:  6.4385142E-5
                              RClose:  0.0293430
                           L2-RClose:  0.0815827
                         Rel-Vol-Err:  3.6678754E-11
 

 OUTPUT CONTROL FOR STRESS PERIOD      2   TIME STEP    59
    SAVE BUDGET
    SAVE HEAD FOR ALL LAYERS
 UBUDSV SAVING "         STORAGE" ON UNIT 34 AT TIME STEP 59, STRESS PERIOD 2
 UBUDSV SAVING "   CONSTANT HEAD" ON UNIT 34 AT TIME STEP 59, STRESS PERIOD 2
 UBUDSV SAVING "FLOW RIGHT FACE " ON UNIT 34 AT TIME STEP 59, STRESS PERIOD 2
 UBUDSV SAVING "FLOW FRONT FACE " ON UNIT 34 AT TIME STEP 59, STRESS PERIOD 2
 UBUDSV SAVING "FLOW LOWER FACE " ON UNIT 34 AT TIME STEP 59, STRESS PERIOD 2
 UBUDSV SAVING "           WELLS" ON UNIT 34 AT TIME STEP 59, STRESS PERIOD 2

 HEAD WILL BE SAVED ON UNIT   35 AT END OF TIME STEP    59 IN STRESS PERIOD      2
 
 SOLVING FOR HEAD 
     8 ITERATIONS FOR TIME STEP  60 IN STRESS PERIOD    2

 MAXIMUM HEAD CHANGE FOR EACH ITERATION:

    HEAD CHANGE   HEAD CHANGE   HEAD CHANGE   HEAD CHANGE   HEAD CHANGE
  LAYER,ROW,COL LAYER,ROW,COL LAYER,ROW,COL LAYER,ROW,COL LAYER,ROW,COL
 ----------------------------------------------------------------------
    -0.1716       -0.6839E-01   -0.6343E-01   -0.8843E-02   -0.5037E-02
  (  1,  9, 10) (  3, 11, 14) (  4,  5, 13) (  4, 12, 15) (  4, 14, 14)
    -0.1238E-02   -0.2753E-03   -0.6412E-04
  (  4, 14, 14) (  3, 16, 13) (  4, 17, 13)



Solver Convergence Information:
                              HClose:  6.4117105E-5
                              RClose:  0.0291876
                           L2-RClose:  0.0813361
                         Rel-Vol-Err:  3.6484456E-11
 

 OUTPUT CONTROL FOR STRESS PERIOD      2   TIME STEP    60
    PRINT BUDGET
    SAVE BUDGET
    PRINT HEAD FOR ALL LAYERS
    SAVE HEAD FOR ALL LAYERS
 UBUDSV SAVING "         STORAGE" ON UNIT 34 AT TIME STEP 60, STRESS PERIOD 2
 UBUDSV SAVING "   CONSTANT HEAD" ON UNIT 34 AT TIME STEP 60, STRESS PERIOD 2
 UBUDSV SAVING "FLOW RIGHT FACE " ON UNIT 34 AT TIME STEP 60, STRESS PERIOD 2
 UBUDSV SAVING "FLOW FRONT FACE " ON UNIT 34 AT TIME STEP 60, STRESS PERIOD 2
 UBUDSV SAVING "FLOW LOWER FACE " ON UNIT 34 AT TIME STEP 60, STRESS PERIOD 2
 UBUDSV SAVING "           WELLS" ON UNIT 34 AT TIME STEP 60, STRESS PERIOD 2
1
              HEAD IN LAYER   1 AT END OF TIME STEP  60 IN STRESS PERIOD    2
  ---------------------------------------------------------------------------

           1       2       3       4       5       6       7       8       9      10      11      12      13      14      15
 ...........................................................................................................................
   1    0.000   0.000   0.000   0.000   0.000 136.112 136.207 136.775 135.819 135.425   0.000   0.000   0.000   0.000   0.000
   2    0.000   0.000   0.000   0.000 136.569 135.784 135.642 136.048 135.150 134.760 134.607 135.363   0.000   0.000   0.000
   3    0.000   0.000   0.000 135.664 135.143 134.709 134.418 134.225 133.830 133.591 133.585 133.889   0.000   0.000   0.000
   4    0.000   0.000   0.000 133.966 133.660 133.246 132.823 132.427 132.063 131.880 132.011 132.758   0.000   0.000   0.000
   5    0.000   0.000 132.970 132.475 132.030 131.479 130.868 130.265 129.765 129.521 129.637 129.943 130.000   0.000   0.000
   6    0.000   0.000 131.184 130.799 130.198 129.424 128.539 127.621 126.811 126.400 126.736 127.330 127.762 128.107   0.000
   7    0.000 130.225 129.657 129.044 128.190 127.109 125.844 124.431 122.959 121.972 123.099 124.530 125.573 126.105   0.000
   8    0.000 128.469 128.019 127.202 126.040 124.583 122.861 120.754 117.831 114.282 118.376 121.593 123.519 124.430   0.000
   9  126.832 126.994 126.431 125.343 123.807 121.918 119.783 117.126 111.707  94.925 112.908 119.164 121.980 123.256 123.452
  10  126.299 125.894 125.004 123.563 121.566 119.154 116.807 115.239 113.211 110.427 115.268 119.036 121.401 122.708 123.213
  11  125.792 124.907 123.758 121.993 119.470 116.254 113.242 113.433 114.013 114.688 117.104 119.519 121.352 122.513 123.047
  12    0.000 123.811 122.773 120.889 118.031 113.966 109.261 111.971 114.359 116.209 118.179 120.028 121.514 122.516 122.989
  13    0.000 123.420 122.307 120.537 118.102 115.133 112.624 113.677 115.463 117.208 118.903 120.456 121.747 122.662   0.000
  14    0.000 123.996 122.208 120.594 118.704 116.714 115.301 115.522 116.575 117.934 119.378 120.758 122.016 123.536   0.000
  15    0.000   0.000 121.802 120.651 119.194 117.733 116.698 116.553 117.157 118.244 119.559 120.852 121.862   0.000   0.000
  16    0.000   0.000 122.448 120.747 119.405 118.092 117.032 116.603 116.961 118.002 119.437 120.951 122.623   0.000   0.000
  17    0.000   0.000   0.000 120.376 119.309 117.912 116.466 115.587 115.789 117.063 118.962 120.815 122.761   0.000   0.000
  18    0.000   0.000   0.000 121.002 119.300 117.509 115.086 113.232 113.274 115.230 118.322 120.707   0.000   0.000   0.000
  19    0.000   0.000   0.000   0.000   0.000   0.000 113.082 108.777 108.602 112.014   0.000   0.000   0.000   0.000   0.000
  20    0.000   0.000   0.000   0.000   0.000   0.000   0.000 100.000 100.000   0.000   0.000   0.000   0.000   0.000   0.000
1
              HEAD IN LAYER   2 AT END OF TIME STEP  60 IN STRESS PERIOD    2
  ---------------------------------------------------------------------------

           1       2       3       4       5       6       7       8       9      10      11      12      13      14      15
 ...........................................................................................................................
   1    0.000   0.000   0.000   0.000   0.000 136.075 136.166 136.627 135.778 135.388   0.000   0.000   0.000   0.000   0.000
   2    0.000   0.000   0.000   0.000 136.419 135.743 135.602 135.902 135.109 134.722 134.565 135.212   0.000   0.000   0.000
   3    0.000   0.000   0.000 135.514 135.098 134.671 134.381 134.185 133.793 133.553 133.546 133.842   0.000   0.000   0.000
   4    0.000   0.000   0.000 133.924 133.621 133.209 132.786 132.390 132.025 131.842 131.969 132.609   0.000   0.000   0.000
   5    0.000   0.000 132.820 132.433 131.992 131.441 130.830 130.228 129.727 129.482 129.597 129.895 129.846   0.000   0.000
   6    0.000   0.000 131.141 130.760 130.159 129.386 128.500 127.582 126.773 126.361 126.696 127.288 127.713 127.953   0.000
   7    0.000 130.074 129.614 129.005 128.151 127.070 125.805 124.393 122.923 121.937 123.062 124.490 125.531 126.059   0.000
   8    0.000 128.425 127.979 127.163 126.001 124.543 122.821 120.718 117.804 114.232 118.348 121.557 123.479 124.388   0.000
   9  126.794 126.955 126.392 125.304 123.767 121.876 119.741 117.092 111.669  93.991 112.865 119.130 121.941 123.215 123.410
  10  126.261 125.856 124.965 123.523 121.523 119.106 116.754 115.198 113.187 110.394 115.243 119.001 121.361 122.667 123.172
  11  125.754 124.868 123.719 121.952 119.422 116.190 113.145 113.375 113.974 114.656 117.069 119.481 121.312 122.472 123.006
  12    0.000 123.772 122.734 120.847 117.978 113.868 108.980 111.878 114.309 116.169 118.141 119.989 121.474 122.476 122.948
  13    0.000 123.378 122.267 120.497 118.056 115.072 112.529 113.618 115.419 117.169 118.864 120.417 121.707 122.618   0.000
  14    0.000 123.846 122.166 120.556 118.664 116.670 115.252 115.480 116.537 117.897 119.341 120.720 121.973 123.384   0.000
  15    0.000   0.000 121.761 120.613 119.158 117.697 116.661 116.518 117.123 118.210 119.524 120.815 121.821   0.000   0.000
  16    0.000   0.000 122.301 120.709 119.370 118.059 117.000 116.572 116.930 117.970 119.403 120.912 122.475   0.000   0.000
  17    0.000   0.000   0.000 120.339 119.276 117.881 116.437 115.559 115.761 117.033 118.929 120.774 122.610   0.000   0.000
  18    0.000   0.000   0.000 120.858 119.265 117.478 115.057 113.206 113.249 115.203 118.288 120.564   0.000   0.000   0.000
  19    0.000   0.000   0.000   0.000   0.000   0.000 112.949 108.748 108.577 111.992   0.000   0.000   0.000   0.000   0.000
  20    0.000   0.000   0.000   0.000   0.000   0.000   0.000 100.000 100.000   0.000   0.000   0.000   0.000   0.000   0.000
1
              HEAD IN LAYER   3 AT END OF TIME STEP  60 IN STRESS PERIOD    2
  ---------------------------------------------------------------------------

           1       2       3       4       5       6       7       8       9      10      11      12      13      14      15
 ...........................................................................................................................
   1    0.000   0.000   0.000   0.000   0.000 135.835 135.873 136.098 135.489 135.162   0.000   0.000   0.000   0.000   0.000
   2    0.000   0.000   0.000   0.000 135.864 135.453 135.316 135.418 134.834 134.487 134.266 134.643   0.000   0.000   0.000
   3    0.000   0.000   0.000 134.951 134.754 134.426 134.149 133.923 133.566 133.330 133.283 133.477   0.000   0.000   0.000
   4    0.000   0.000   0.000 133.616 133.372 132.992 132.577 132.177 131.816 131.622 131.687 132.086   0.000   0.000   0.000
   5    0.000   0.000 132.263 132.137 131.763 131.232 130.627 130.026 129.529 129.279 129.354 129.542 129.246   0.000   0.000
   6    0.000   0.000 130.831 130.515 129.942 129.178 128.298 127.393 126.608 126.219 126.510 127.033 127.345 127.359   0.000
   7    0.000 129.512 129.314 128.772 127.935 126.859 125.608 124.243 122.888 122.067 123.019 124.318 125.281 125.746   0.000
   8    0.000 128.128 127.734 126.938 125.778 124.321 122.630 120.669 118.203 115.668 118.749 121.514 123.293 124.156   0.000
   9  126.580 126.726 126.167 125.075 123.522 121.608 119.501 117.170 113.112 102.534 114.320 119.263 121.794 123.004 123.189
  10  126.049 125.638 124.740 123.276 121.215 118.667 116.160 114.946 113.527 111.851 115.652 118.965 121.187 122.454 122.949
  11  125.542 124.647 123.485 121.668 118.973 115.238 111.070 112.508 113.727 114.743 117.024 119.326 121.109 122.251 122.781
  12    0.000 123.532 122.486 120.526 117.332 111.770  99.816 109.814 113.726 115.937 117.951 119.784 121.250 122.237 122.719
  13    0.000 123.072 122.003 120.208 117.611 114.126 110.445 112.684 114.996 116.912 118.645 120.193 121.456 122.309   0.000
  14    0.000 123.271 121.855 120.293 118.362 116.236 114.627 115.054 116.250 117.667 119.122 120.484 121.666 122.805   0.000
  15    0.000   0.000 121.447 120.360 118.917 117.434 116.369 116.264 116.903 118.003 119.310 120.568 121.504   0.000   0.000
  16    0.000   0.000 121.731 120.415 119.145 117.849 116.792 116.376 116.743 117.777 119.183 120.604 121.884   0.000   0.000
  17    0.000   0.000   0.000 120.043 119.049 117.683 116.246 115.384 115.590 116.849 118.695 120.406 121.948   0.000   0.000
  18    0.000   0.000   0.000 120.305 118.990 117.269 114.823 113.031 113.091 115.025 118.017 119.995   0.000   0.000   0.000
  19    0.000   0.000   0.000   0.000   0.000   0.000 112.450 108.558 108.446 111.852   0.000   0.000   0.000   0.000   0.000
  20    0.000   0.000   0.000   0.000   0.000   0.000   0.000 100.000 100.000   0.000   0.000   0.000   0.000   0.000   0.000
1
              HEAD IN LAYER   4 AT END OF TIME STEP  60 IN STRESS PERIOD    2
  ---------------------------------------------------------------------------

           1       2       3       4       5       6       7       8       9      10      11      12      13      14      15
 ...........................................................................................................................
   1    0.000   0.000   0.000   0.000   0.000 135.589 135.573 135.558 135.193 134.931   0.000   0.000   0.000   0.000   0.000
   2    0.000   0.000   0.000   0.000 135.296 135.156 135.024 134.923 134.552 134.246 133.960 134.061   0.000   0.000   0.000
   3    0.000   0.000   0.000 134.375 134.401 134.174 133.912 133.654 133.333 133.101 133.013 133.103   0.000   0.000   0.000
   4    0.000   0.000   0.000 133.300 133.116 132.769 132.362 131.959 131.601 131.396 131.398 131.552   0.000   0.000   0.000
   5    0.000   0.000 131.693 131.835 131.529 131.018 130.418 129.820 129.325 129.070 129.105 129.180 128.633   0.000   0.000
   6    0.000   0.000 130.514 130.264 129.720 128.965 128.092 127.199 126.440 126.074 126.319 126.771 126.967 126.750   0.000
   7    0.000 128.938 129.007 128.532 127.713 126.643 125.406 124.089 122.852 122.200 122.975 124.141 125.026 125.426   0.000
   8    0.000 127.823 127.483 126.707 125.550 124.094 122.433 120.619 118.611 117.138 119.159 121.471 123.101 123.917   0.000
   9  126.362 126.491 125.936 124.841 123.271 121.334 119.254 117.249 114.578 111.250 115.798 119.399 121.643 122.788 122.962
  10  125.833 125.415 124.510 123.022 120.899 118.217 115.551 114.687 113.865 113.331 116.069 118.928 121.008 122.235 122.721
  11  125.325 124.421 123.244 121.377 118.512 114.263 108.936 111.611 113.474 114.831 116.978 119.167 120.900 122.023 122.550
  12    0.000 123.286 122.231 120.197 116.670 109.613  90.415 107.692 113.129 115.700 117.756 119.573 121.021 121.992 122.485
  13    0.000 122.758 121.733 119.912 117.155 113.156 108.302 111.728 114.563 116.648 118.419 119.963 121.200 121.994   0.000
  14    0.000 122.683 121.536 120.023 118.051 115.792 113.987 114.618 115.956 117.431 118.898 120.243 121.352 122.212   0.000
  15    0.000   0.000 121.125 120.101 118.670 117.164 116.070 116.004 116.678 117.792 119.091 120.316 121.180   0.000   0.000
  16    0.000   0.000 121.149 120.113 118.914 117.633 116.580 116.176 116.550 117.580 118.957 120.289 121.280   0.000   0.000
  17    0.000   0.000   0.000 119.740 118.817 117.481 116.051 115.205 115.416 116.660 118.455 120.029 121.271   0.000   0.000
  18    0.000   0.000   0.000 119.739 118.708 117.055 114.583 112.852 112.929 114.842 117.739 119.413   0.000   0.000   0.000
  19    0.000   0.000   0.000   0.000   0.000   0.000 111.939 108.364 108.311 111.708   0.000   0.000   0.000   0.000   0.000
  20    0.000   0.000   0.000   0.000   0.000   0.000   0.000 100.000 100.000   0.000   0.000   0.000   0.000   0.000   0.000

 HEAD WILL BE SAVED ON UNIT   35 AT END OF TIME STEP    60 IN STRESS PERIOD      2



  -------------------------------------------------------------------------------------
  VOLUMETRIC BUDGET FOR ENTIRE MODEL AT END OF TIME STEP   60 IN STRESS PERIOD      2
  -------------------------------------------------------------------------------------

     CUMULATIVE VOLUMES      L**3       RATES FOR THIS TIME STEP      L**3/T
     ------------------                 ------------------------

           IN:                                      IN:
           ---                                      ---
             STORAGE =  3013404014.7262               STORAGE =      130389.0538
       CONSTANT HEAD =           0.0000         CONSTANT HEAD =           0.0000
               WELLS =   867873600.0000                 WELLS =       39600.0000
    INTERBED STORAGE =    27111224.6220      INTERBED STORAGE =        1508.4943

            TOTAL IN =  3908388839.3482              TOTAL IN =      171497.5480

          OUT:                                     OUT:
          ----                                     ----
             STORAGE =           0.0000               STORAGE =           0.0000
       CONSTANT HEAD =   752632873.9523         CONSTANT HEAD =       27497.8640
               WELLS =  3155760000.0000                 WELLS =      144000.0000
    INTERBED STORAGE =           0.0000      INTERBED STORAGE =           0.0000

           TOTAL OUT =  3908392873.9523             TOTAL OUT =      171497.8640

            IN - OUT =       -4034.6041              IN - OUT =          -0.3159

 PERCENT DISCREPANCY =          -0.00     PERCENT DISCREPANCY =          -0.00


          TIME SUMMARY AT END OF TIME STEP    60 IN STRESS PERIOD      2
                    SECONDS     MINUTES      HOURS       DAYS        YEARS
                    -----------------------------------------------------------
   TIME STEP LENGTH 3.15576E+07 5.25960E+05  8766.0      365.25      1.0000    
 STRESS PERIOD TIME 1.89346E+09 3.15576E+07 5.25960E+05  21915.      60.000    
         TOTAL TIME 1.89354E+09 3.15590E+07 5.25984E+05  21916.      60.003    
 
 The following subsidence array is the sum of compaction values for all systems of interbeds:
1
        SUBSIDENCE IN LAYER   1 AT END OF TIME STEP  60 IN STRESS PERIOD    2
  ---------------------------------------------------------------------------

         1     2     3     4     5     6     7     8     9    10    11    12    13    14    15
 .............................................................................................
   1  0.000 0.000 0.000 0.000 0.000 0.015 0.016 0.016 0.016 0.016 0.000 0.000 0.000 0.000 0.000
   2  0.000 0.000 0.000 0.000 0.016 0.016 0.016 0.017 0.017 0.017 0.018 0.019 0.000 0.000 0.000
   3  0.000 0.000 0.000 0.017 0.017 0.017 0.017 0.018 0.018 0.019 0.019 0.020 0.000 0.000 0.000
   4  0.000 0.000 0.000 0.017 0.018 0.018 0.019 0.020 0.020 0.021 0.022 0.022 0.000 0.000 0.000
   5  0.000 0.000 0.019 0.019 0.019 0.020 0.021 0.022 0.023 0.024 0.024 0.025 0.026 0.000 0.000
   6  0.000 0.000 0.020 0.020 0.021 0.022 0.024 0.026 0.027 0.028 0.028 0.027 0.027 0.027 0.000
   7  0.000 0.021 0.021 0.022 0.023 0.025 0.027 0.030 0.033 0.034 0.033 0.030 0.029 0.028 0.000
   8  0.000 0.021 0.022 0.023 0.025 0.028 0.031 0.035 0.039 0.093 0.039 0.033 0.030 0.028 0.000
   9  0.021 0.022 0.023 0.025 0.027 0.031 0.035 0.039 0.143 0.611 0.106 0.035 0.031 0.028 0.027
  10  0.021 0.022 0.024 0.026 0.030 0.034 0.038 0.040 0.067 0.151 0.040 0.034 0.030 0.028 0.026
  11  0.022 0.023 0.024 0.027 0.032 0.038 0.113 0.065 0.040 0.039 0.035 0.031 0.028 0.026 0.026
  12  0.000 0.023 0.025 0.027 0.032 0.086 0.484 0.112 0.037 0.034 0.031 0.028 0.026 0.025 0.025
  13  0.000 0.023 0.024 0.026 0.030 0.035 0.082 0.036 0.032 0.029 0.027 0.025 0.024 0.024 0.000
  14  0.000 0.023 0.023 0.024 0.026 0.029 0.030 0.029 0.027 0.025 0.024 0.023 0.022 0.023 0.000
  15  0.000 0.000 0.022 0.022 0.023 0.024 0.024 0.023 0.022 0.021 0.020 0.020 0.020 0.000 0.000
  16  0.000 0.000 0.021 0.020 0.020 0.020 0.019 0.019 0.018 0.018 0.018 0.018 0.018 0.000 0.000
  17  0.000 0.000 0.000 0.018 0.017 0.017 0.016 0.015 0.014 0.014 0.015 0.016 0.017 0.000 0.000
  18  0.000 0.000 0.000 0.017 0.016 0.015 0.012 0.011 0.010 0.012 0.014 0.014 0.000 0.000 0.000
  19  0.000 0.000 0.000 0.000 0.000 0.000 0.009 0.006 0.006 0.009 0.000 0.000 0.000 0.000 0.000
  20  0.000 0.000 0.000 0.000 0.000 0.000 0.000 0.000 0.000 0.000 0.000 0.000 0.000 0.000 0.000
1
  LAYER COMPACTION IN LAYER   1 AT END OF TIME STEP  60 IN STRESS PERIOD    2
  ---------------------------------------------------------------------------

         1     2     3     4     5     6     7     8     9    10    11    12    13    14    15
 .............................................................................................
   1  .0000 .0000 .0000 .0000 .0000 .0068 .0069 .0071 .0071 .0072 .0000 .0000 .0000 .0000 .0000
   2  .0000 .0000 .0000 .0000 .0071 .0070 .0071 .0074 .0074 .0076 .0080 .0084 .0000 .0000 .0000
   3  .0000 .0000 .0000 .0074 .0073 .0073 .0075 .0077 .0079 .0082 .0084 .0086 .0000 .0000 .0000
   4  .0000 .0000 .0000 .0075 .0076 .0078 .0080 .0084 .0087 .0089 .0092 .0095 .0000 .0000 .0000
   5  .0000 .0000 .0081 .0079 .0081 .0084 .0088 .0093 .0097 .0100 .0102 .0103 .0108 .0000 .0000
   6  .0000 .0000 .0082 .0083 .0087 .0092 .0098 .0105 .0111 .0115 .0114 .0112 .0111 .0113 .0000
   7  .0000 .0086 .0085 .0088 .0093 .0100 .0109 .0119 .0129 .0136 .0129 .0121 .0115 .0112 .0000
   8  .0000 .0085 .0087 .0092 .0100 .0109 .0120 .0133 .0151 .0396 .0149 .0130 .0118 .0112 .0000
   9  .0083 .0085 .0090 .0097 .0106 .0117 .0130 .0145 .0576 .2169 .0445 .0135 .0118 .0109 .0104
  10  .0084 .0086 .0092 .0100 .0112 .0125 .0138 .0145 .0253 .0598 .0147 .0127 .0113 .0105 .0101
  11  .0084 .0087 .0093 .0102 .0116 .0132 .0146 .0145 .0142 .0139 .0128 .0115 .0106 .0100 .0098
  12  .0000 .0088 .0093 .0101 .0115 .0135 .0447 .0141 .0129 .0121 .0112 .0104 .0098 .0095 .0095
  13  .0000 .0088 .0090 .0096 .0106 .0118 .0128 .0122 .0112 .0104 .0098 .0093 .0090 .0089 .0000
  14  .0000 .0087 .0085 .0088 .0093 .0099 .0103 .0099 .0094 .0088 .0084 .0082 .0081 .0086 .0000
  15  .0000 .0000 .0079 .0079 .0080 .0082 .0082 .0079 .0076 .0074 .0072 .0071 .0072 .0000 .0000
  16  .0000 .0000 .0076 .0071 .0069 .0068 .0065 .0062 .0060 .0060 .0061 .0063 .0065 .0000 .0000
  17  .0000 .0000 .0000 .0063 .0061 .0057 .0051 .0047 .0046 .0048 .0052 .0056 .0060 .0000 .0000
  18  .0000 .0000 .0000 .0060 .0056 .0050 .0039 .0033 .0032 .0037 .0045 .0051 .0000 .0000 .0000
  19  .0000 .0000 .0000 .0000 .0000 .0000 .0028 .0017 .0017 .0025 .0000 .0000 .0000 .0000 .0000
  20  .0000 .0000 .0000 .0000 .0000 .0000 .0000 .0000 .0000 .0000 .0000 .0000 .0000 .0000 .0000
1
  LAYER COMPACTION IN LAYER   2 AT END OF TIME STEP  60 IN STRESS PERIOD    2
  ---------------------------------------------------------------------------

         1     2     3     4     5     6     7     8     9    10    11    12    13    14    15
 .............................................................................................
   1  .0000 .0000 .0000 .0000 .0000 .0041 .0041 .0042 .0043 .0044 .0000 .0000 .0000 .0000 .0000
   2  .0000 .0000 .0000 .0000 .0042 .0042 .0043 .0044 .0046 .0047 .0049 .0050 .0000 .0000 .0000
   3  .0000 .0000 .0000 .0045 .0045 .0045 .0046 .0048 .0050 .0051 .0053 .0054 .0000 .0000 .0000
   4  .0000 .0000 .0000 .0047 .0048 .0050 .0052 .0054 .0056 .0058 .0059 .0060 .0000 .0000 .0000
   5  .0000 .0000 .0052 .0051 .0053 .0055 .0059 .0062 .0066 .0068 .0068 .0069 .0071 .0000 .0000
   6  .0000 .0000 .0055 .0056 .0059 .0063 .0068 .0073 .0078 .0081 .0080 .0078 .0077 .0077 .0000
   7  .0000 .0058 .0058 .0061 .0065 .0071 .0079 .0087 .0096 .0102 .0096 .0088 .0083 .0080 .0000
   8  .0000 .0060 .0062 .0066 .0073 .0081 .0091 .0103 .0121 .0400 .0118 .0099 .0088 .0083 .0000
   9  .0061 .0062 .0066 .0072 .0080 .0091 .0103 .0119 .0622 .3171 .0466 .0108 .0091 .0083 .0079
  10  .0062 .0064 .0069 .0077 .0088 .0101 .0115 .0123 .0251 .0665 .0124 .0103 .0089 .0081 .0078
  11  .0063 .0066 .0072 .0081 .0094 .0112 .0129 .0127 .0124 .0120 .0107 .0094 .0084 .0079 .0076
  12  .0000 .0069 .0073 .0082 .0097 .0119 .0564 .0129 .0114 .0104 .0094 .0085 .0079 .0075 .0074
  13  .0000 .0069 .0072 .0079 .0090 .0105 .0118 .0110 .0100 .0091 .0083 .0077 .0072 .0071 .0000
  14  .0000 .0068 .0069 .0073 .0080 .0088 .0093 .0090 .0084 .0078 .0072 .0068 .0066 .0067 .0000
  15  .0000 .0000 .0065 .0066 .0069 .0073 .0075 .0073 .0069 .0066 .0063 .0060 .0059 .0000 .0000
  16  .0000 .0000 .0062 .0060 .0061 .0061 .0061 .0059 .0057 .0055 .0054 .0054 .0054 .0000 .0000
  17  .0000 .0000 .0000 .0055 .0054 .0053 .0050 .0047 .0046 .0046 .0047 .0048 .0050 .0000 .0000
  18  .0000 .0000 .0000 .0051 .0050 .0047 .0040 .0035 .0034 .0037 .0042 .0044 .0000 .0000 .0000
  19  .0000 .0000 .0000 .0000 .0000 .0000 .0030 .0021 .0021 .0028 .0000 .0000 .0000 .0000 .0000
  20  .0000 .0000 .0000 .0000 .0000 .0000 .0000 .0000 .0000 .0000 .0000 .0000 .0000 .0000 .0000
1
  LAYER COMPACTION IN LAYER   3 AT END OF TIME STEP  60 IN STRESS PERIOD    2
  ---------------------------------------------------------------------------

         1     2     3     4     5     6     7     8     9    10    11    12    13    14    15
 .............................................................................................
   1  .0000 .0000 .0000 .0000 .0000 .0020 .0020 .0020 .0021 .0021 .0000 .0000 .0000 .0000 .0000
   2  .0000 .0000 .0000 .0000 .0020 .0020 .0021 .0021 .0022 .0023 .0024 .0024 .0000 .0000 .0000
   3  .0000 .0000 .0000 .0022 .0021 .0022 .0022 .0023 .0024 .0025 .0025 .0026 .0000 .0000 .0000
   4  .0000 .0000 .0000 .0023 .0023 .0024 .0025 .0026 .0027 .0028 .0028 .0028 .0000 .0000 .0000
   5  .0000 .0000 .0025 .0025 .0025 .0026 .0028 .0030 .0031 .0032 .0032 .0033 .0034 .0000 .0000
   6  .0000 .0000 .0026 .0027 .0028 .0030 .0032 .0035 .0037 .0038 .0038 .0037 .0036 .0037 .0000
   7  .0000 .0028 .0028 .0029 .0031 .0034 .0037 .0041 .0045 .0047 .0045 .0042 .0039 .0038 .0000
   8  .0000 .0029 .0030 .0032 .0035 .0039 .0043 .0048 .0055 .0061 .0054 .0047 .0042 .0039 .0000
   9  .0029 .0030 .0031 .0034 .0038 .0044 .0049 .0055 .0152 .0701 .0076 .0050 .0043 .0040 .0038
  10  .0030 .0031 .0033 .0037 .0042 .0049 .0056 .0059 .0085 .0172 .0057 .0048 .0042 .0039 .0037
  11  .0030 .0032 .0034 .0039 .0046 .0057 .0260 .0117 .0059 .0056 .0050 .0045 .0040 .0038 .0036
  12  .0000 .0033 .0035 .0040 .0048 .0149 .1156 .0258 .0056 .0050 .0045 .0041 .0038 .0036 .0036
  13  .0000 .0033 .0035 .0038 .0044 .0053 .0137 .0056 .0049 .0044 .0040 .0037 .0035 .0034 .0000
  14  .0000 .0032 .0033 .0035 .0039 .0043 .0046 .0044 .0041 .0037 .0035 .0033 .0032 .0032 .0000
  15  .0000 .0000 .0031 .0032 .0034 .0035 .0036 .0035 .0033 .0032 .0030 .0029 .0029 .0000 .0000
  16  .0000 .0000 .0030 .0029 .0029 .0030 .0029 .0028 .0027 .0027 .0026 .0026 .0026 .0000 .0000
  17  .0000 .0000 .0000 .0026 .0026 .0025 .0024 .0023 .0022 .0022 .0023 .0023 .0024 .0000 .0000
  18  .0000 .0000 .0000 .0025 .0024 .0023 .0019 .0017 .0017 .0018 .0021 .0022 .0000 .0000 .0000
  19  .0000 .0000 .0000 .0000 .0000 .0000 .0015 .0010 .0010 .0014 .0000 .0000 .0000 .0000 .0000
  20  .0000 .0000 .0000 .0000 .0000 .0000 .0000 .0000 .0000 .0000 .0000 .0000 .0000 .0000 .0000
1
  LAYER COMPACTION IN LAYER   4 AT END OF TIME STEP  60 IN STRESS PERIOD    2
  ---------------------------------------------------------------------------

         1     2     3     4     5     6     7     8     9    10    11    12    13    14    15
 .............................................................................................
   1  .0000 .0000 .0000 .0000 .0000 .0025 .0026 .0026 .0027 .0027 .0000 .0000 .0000 .0000 .0000
   2  .0000 .0000 .0000 .0000 .0026 .0026 .0027 .0027 .0028 .0029 .0030 .0031 .0000 .0000 .0000
   3  .0000 .0000 .0000 .0028 .0028 .0028 .0029 .0030 .0031 .0032 .0033 .0033 .0000 .0000 .0000
   4  .0000 .0000 .0000 .0029 .0030 .0031 .0032 .0033 .0035 .0036 .0036 .0037 .0000 .0000 .0000
   5  .0000 .0000 .0032 .0032 .0033 .0034 .0036 .0038 .0040 .0041 .0042 .0042 .0044 .0000 .0000
   6  .0000 .0000 .0034 .0034 .0036 .0039 .0041 .0045 .0047 .0049 .0048 .0047 .0047 .0047 .0000
   7  .0000 .0036 .0036 .0038 .0040 .0044 .0048 .0052 .0057 .0059 .0057 .0053 .0050 .0049 .0000
   8  .0000 .0037 .0038 .0041 .0045 .0050 .0055 .0061 .0067 .0069 .0065 .0059 .0053 .0051 .0000
   9  .0038 .0038 .0041 .0044 .0050 .0056 .0063 .0069 .0075 .0066 .0071 .0062 .0055 .0051 .0049
  10  .0038 .0040 .0043 .0048 .0055 .0064 .0074 .0076 .0077 .0075 .0069 .0061 .0054 .0050 .0048
  11  .0039 .0041 .0045 .0051 .0060 .0076 .0597 .0261 .0076 .0070 .0064 .0057 .0052 .0048 .0047
  12  .0000 .0043 .0045 .0052 .0064 .0459 .2670 .0593 .0074 .0064 .0058 .0052 .0048 .0046 .0046
  13  .0000 .0043 .0045 .0049 .0058 .0072 .0442 .0075 .0064 .0056 .0051 .0047 .0045 .0044 .0000
  14  .0000 .0042 .0043 .0045 .0050 .0056 .0062 .0058 .0053 .0048 .0045 .0042 .0041 .0042 .0000
  15  .0000 .0000 .0040 .0041 .0043 .0046 .0047 .0046 .0043 .0041 .0039 .0038 .0037 .0000 .0000
  16  .0000 .0000 .0038 .0038 .0038 .0038 .0038 .0037 .0036 .0035 .0034 .0034 .0034 .0000 .0000
  17  .0000 .0000 .0000 .0034 .0034 .0033 .0031 .0030 .0029 .0029 .0030 .0030 .0031 .0000 .0000
  18  .0000 .0000 .0000 .0032 .0032 .0030 .0025 .0022 .0022 .0024 .0027 .0028 .0000 .0000 .0000
  19  .0000 .0000 .0000 .0000 .0000 .0000 .0019 .0013 .0013 .0018 .0000 .0000 .0000 .0000 .0000
  20  .0000 .0000 .0000 .0000 .0000 .0000 .0000 .0000 .0000 .0000 .0000 .0000 .0000 .0000 .0000
1
  PRECONSOL STRESS IN LAYER   1 AT END OF TIME STEP  60 IN STRESS PERIOD    2
  ---------------------------------------------------------------------------

           1       2       3       4       5       6       7       8       9      10      11      12      13      14      15
 ...........................................................................................................................
   1      0.0     0.0     0.0     0.0     0.0   120.3   120.2   119.7   120.2   120.4     0.0     0.0     0.0     0.0     0.0
   2      0.0     0.0     0.0     0.0   119.8   120.4   120.4   120.0   120.4   120.5   120.4   119.8     0.0     0.0     0.0
   3      0.0     0.0     0.0   120.1   120.5   120.8   120.8   120.8   120.9   120.9   120.7   120.4     0.0     0.0     0.0
   4      0.0     0.0     0.0   121.0   121.2   121.3   121.4   121.4   121.4   121.3   121.1   120.5     0.0     0.0     0.0
   5      0.0     0.0   121.2   121.6   121.8   121.9   121.9   121.9   121.9   121.9   121.7   121.5   121.1     0.0     0.0
   6      0.0     0.0   122.2   122.3   122.4   122.5   122.5   122.5   122.5   122.5   122.4   122.2   122.1   121.8     0.0
   7      0.0   122.4   122.8   122.9   123.0   123.1   123.1   123.2   123.1   123.1   123.0   123.0   122.9   122.8     0.0
   8      0.0   123.4   123.5   123.6   123.7   123.7   123.8   123.8   123.8   125.0   123.7   123.7   123.6   123.6     0.0
   9    124.4   124.2   124.2   124.2   124.3   124.4   124.5   124.5   126.8   138.6   126.0   124.3   124.3   124.4   124.7
  10    124.7   124.7   124.7   124.8   125.0   125.1   125.2   125.2   125.8   127.7   125.1   125.0   124.9   124.9   125.0
  11    124.9   125.1   125.3   125.4   125.6   125.8   125.9   126.0   126.0   125.9   125.8   125.6   125.5   125.4   125.3
  12      0.0   125.6   125.8   126.1   126.3   126.5   128.5   126.8   126.8   126.7   126.5   126.3   126.0   125.8   125.5
  13      0.0   125.9   126.3   126.6   127.0   127.3   127.6   127.7   127.7   127.5   127.3   127.0   126.5   126.1     0.0
  14      0.0   125.6   126.7   127.3   127.8   128.2   128.6   128.7   128.7   128.5   128.2   127.7   127.1   125.9     0.0
  15      0.0     0.0   127.4   128.0   128.6   129.2   129.7   130.0   130.0   129.7   129.1   128.5   127.9     0.0     0.0
  16      0.0     0.0   127.3   128.6   129.4   130.3   131.1   131.5   131.5   131.0   130.2   129.2   128.1     0.0     0.0
  17      0.0     0.0     0.0   129.5   130.3   131.4   132.7   133.6   133.6   132.7   131.3   129.9   128.4     0.0     0.0
  18      0.0     0.0     0.0   129.4   130.7   132.3   134.7   136.6   136.6   134.9   132.3   130.4     0.0     0.0     0.0
  19      0.0     0.0     0.0     0.0     0.0     0.0   137.3   141.3   141.5   138.2     0.0     0.0     0.0     0.0     0.0
  20      0.0     0.0     0.0     0.0     0.0     0.0     0.0     0.0     0.0     0.0     0.0     0.0     0.0     0.0     0.0
1
  PRECONSOL STRESS IN LAYER   2 AT END OF TIME STEP  60 IN STRESS PERIOD    2
  ---------------------------------------------------------------------------

           1       2       3       4       5       6       7       8       9      10      11      12      13      14      15
 ...........................................................................................................................
   1      0.0     0.0     0.0     0.0     0.0   270.3   270.2   269.8   270.2   270.4     0.0     0.0     0.0     0.0     0.0
   2      0.0     0.0     0.0     0.0   269.9   270.4   270.4   270.1   270.5   270.6   270.4   269.9     0.0     0.0     0.0
   3      0.0     0.0     0.0   270.3   270.6   270.8   270.8   270.8   270.9   270.9   270.7   270.4     0.0     0.0     0.0
   4      0.0     0.0     0.0   271.1   271.2   271.3   271.4   271.4   271.4   271.3   271.1   270.6     0.0     0.0     0.0
   5      0.0     0.0   271.4   271.6   271.8   271.9   271.9   271.9   271.9   271.9   271.7   271.5   271.2     0.0     0.0
   6      0.0     0.0   272.2   272.3   272.4   272.5   272.5   272.5   272.5   272.5   272.4   272.2   272.1   271.9     0.0
   7      0.0   272.6   272.8   272.9   273.0   273.1   273.1   273.2   273.1   273.1   273.0   273.0   272.9   272.8     0.0
   8      0.0   273.4   273.5   273.6   273.7   273.7   273.8   273.8   273.8   275.1   273.7   273.7   273.6   273.6     0.0
   9    274.4   274.2   274.2   274.2   274.3   274.4   274.5   274.5   276.8   289.5   276.0   274.3   274.3   274.4   274.7
  10    274.7   274.7   274.7   274.8   275.0   275.1   275.2   275.2   275.8   277.7   275.1   275.0   274.9   274.9   275.0
  11    274.9   275.1   275.3   275.5   275.6   275.8   275.9   276.0   276.0   275.9   275.8   275.6   275.5   275.4   275.3
  12      0.0   275.6   275.8   276.1   276.3   276.5   278.8   276.8   276.8   276.7   276.5   276.3   276.0   275.8   275.5
  13      0.0   275.9   276.3   276.7   277.0   277.3   277.6   277.7   277.7   277.5   277.3   277.0   276.6   276.1     0.0
  14      0.0   275.7   276.7   277.3   277.8   278.2   278.6   278.7   278.7   278.5   278.2   277.7   277.1   276.0     0.0
  15      0.0     0.0   277.4   278.0   278.6   279.2   279.7   280.0   280.0   279.7   279.1   278.5   277.9     0.0     0.0
  16      0.0     0.0   277.4   278.6   279.4   280.3   281.1   281.5   281.5   281.0   280.2   279.2   278.2     0.0     0.0
  17      0.0     0.0     0.0   279.5   280.3   281.4   282.7   283.6   283.6   282.7   281.3   279.9   278.5     0.0     0.0
  18      0.0     0.0     0.0   279.5   280.7   282.3   284.7   286.6   286.6   285.0   282.3   280.5     0.0     0.0     0.0
  19      0.0     0.0     0.0     0.0     0.0     0.0   287.4   291.3   291.5   288.2     0.0     0.0     0.0     0.0     0.0
  20      0.0     0.0     0.0     0.0     0.0     0.0     0.0     0.0     0.0     0.0     0.0     0.0     0.0     0.0     0.0
1
  PRECONSOL STRESS IN LAYER   3 AT END OF TIME STEP  60 IN STRESS PERIOD    2
  ---------------------------------------------------------------------------

           1       2       3       4       5       6       7       8       9      10      11      12      13      14      15
 ...........................................................................................................................
   1      0.0     0.0     0.0     0.0     0.0   320.4   320.3   320.1   320.3   320.5     0.0     0.0     0.0     0.0     0.0
   2      0.0     0.0     0.0     0.0   320.3   320.5   320.5   320.4   320.5   320.6   320.5   320.3     0.0     0.0     0.0
   3      0.0     0.0     0.0   320.6   320.7   320.8   320.9   320.9   320.9   320.9   320.8   320.6     0.0     0.0     0.0
   4      0.0     0.0     0.0   321.2   321.2   321.3   321.4   321.4   321.4   321.3   321.2   321.0     0.0     0.0     0.0
   5      0.0     0.0   321.7   321.7   321.8   321.9   321.9   322.0   321.9   321.9   321.8   321.6   321.6     0.0     0.0
   6      0.0     0.0   322.3   322.3   322.4   322.5   322.5   322.5   322.5   322.5   322.4   322.3   322.2   322.3     0.0
   7      0.0   322.9   322.9   323.0   323.0   323.1   323.1   323.2   323.1   323.1   323.1   323.0   322.9   322.9     0.0
   8      0.0   323.5   323.5   323.6   323.7   323.7   323.8   323.8   323.8   323.8   323.7   323.7   323.6   323.6     0.0
   9    324.4   324.2   324.2   324.2   324.3   324.4   324.5   324.5   325.4   330.9   324.6   324.4   324.3   324.4   324.7
  10    324.7   324.7   324.7   324.8   325.0   325.1   325.2   325.2   325.4   326.3   325.1   325.0   324.9   324.9   325.0
  11    324.9   325.1   325.3   325.5   325.6   325.8   327.9   326.5   326.0   325.9   325.8   325.6   325.5   325.4   325.3
  12      0.0   325.6   325.8   326.1   326.3   327.4   338.0   328.8   326.8   326.7   326.5   326.3   326.0   325.8   325.5
  13      0.0   326.0   326.3   326.7   327.0   327.3   328.3   327.7   327.7   327.5   327.3   327.0   326.6   326.2     0.0
  14      0.0   326.1   326.8   327.3   327.8   328.2   328.6   328.7   328.7   328.5   328.2   327.7   327.2   326.4     0.0
  15      0.0     0.0   327.5   328.0   328.6   329.2   329.7   330.0   330.0   329.7   329.1   328.5   328.1     0.0     0.0
  16      0.0     0.0   327.8   328.7   329.5   330.3   331.1   331.6   331.6   331.0   330.2   329.3   328.6     0.0     0.0
  17      0.0     0.0     0.0   329.6   330.3   331.4   332.7   333.6   333.7   332.8   331.3   330.1   329.0     0.0     0.0
  18      0.0     0.0     0.0   329.9   330.8   332.3   334.8   336.6   336.7   335.0   332.4   330.9     0.0     0.0     0.0
  19      0.0     0.0     0.0     0.0     0.0     0.0   337.8   341.4   341.6   338.3     0.0     0.0     0.0     0.0     0.0
  20      0.0     0.0     0.0     0.0     0.0     0.0     0.0     0.0     0.0     0.0     0.0     0.0     0.0     0.0     0.0
1
  PRECONSOL STRESS IN LAYER   4 AT END OF TIME STEP  60 IN STRESS PERIOD    2
  ---------------------------------------------------------------------------

           1       2       3       4       5       6       7       8       9      10      11      12      13      14      15
 ...........................................................................................................................
   1      0.0     0.0     0.0     0.0     0.0   520.4   520.4   520.5   520.5   520.5     0.0     0.0     0.0     0.0     0.0
   2      0.0     0.0     0.0     0.0   520.7   520.6   520.6   520.7   520.6   520.6   520.6   520.6     0.0     0.0     0.0
   3      0.0     0.0     0.0   521.0   520.9   520.9   520.9   521.0   521.0   520.9   520.9   520.8     0.0     0.0     0.0
   4      0.0     0.0     0.0   521.3   521.3   521.4   521.4   521.4   521.4   521.4   521.3   521.3     0.0     0.0     0.0
   5      0.0     0.0   522.1   521.8   521.9   521.9   521.9   522.0   521.9   521.9   521.8   521.8   522.0     0.0     0.0
   6      0.0     0.0   522.4   522.4   522.4   522.5   522.5   522.5   522.5   522.5   522.4   522.4   522.4   522.6     0.0
   7      0.0   523.3   523.0   523.0   523.0   523.1   523.1   523.2   523.2   523.1   523.1   523.0   523.0   523.0     0.0
   8      0.0   523.6   523.6   523.6   523.7   523.7   523.8   523.8   523.8   523.8   523.7   523.7   523.7   523.7     0.0
   9    524.4   524.2   524.2   524.2   524.3   524.4   524.5   524.5   524.5   524.5   524.4   524.4   524.3   524.4   524.7
  10    524.7   524.7   524.8   524.9   525.0   525.1   525.2   525.2   525.2   525.2   525.1   525.0   524.9   524.9   525.0
  11    524.9   525.1   525.3   525.5   525.6   525.8   530.0   527.4   526.0   525.9   525.8   525.6   525.5   525.4   525.3
  12      0.0   525.6   525.8   526.1   526.3   529.6   547.4   530.9   526.8   526.7   526.5   526.3   526.0   525.8   525.5
  13      0.0   526.1   526.3   526.7   527.0   527.3   530.5   527.7   527.7   527.6   527.3   527.0   526.6   526.3     0.0
  14      0.0   526.4   526.9   527.3   527.8   528.2   528.6   528.8   528.7   528.5   528.2   527.7   527.3   526.7     0.0
  15      0.0     0.0   527.6   528.1   528.6   529.2   529.7   530.0   530.0   529.7   529.2   528.6   528.2     0.0     0.0
  16      0.0     0.0   528.1   528.8   529.5   530.3   531.1   531.6   531.6   531.1   530.3   529.4   529.0     0.0     0.0
  17      0.0     0.0     0.0   529.7   530.4   531.4   532.8   533.7   533.7   532.8   531.4   530.3   529.4     0.0     0.0
  18      0.0     0.0     0.0   530.3   530.9   532.4   535.0   536.7   536.8   535.1   532.5   531.3     0.0     0.0     0.0
  19      0.0     0.0     0.0     0.0     0.0     0.0   538.2   541.6   541.7   538.3     0.0     0.0     0.0     0.0     0.0
  20      0.0     0.0     0.0     0.0     0.0     0.0     0.0     0.0     0.0     0.0     0.0     0.0     0.0     0.0     0.0
1
  CHANGE IN PCSTRS IN LAYER   1 AT END OF TIME STEP  60 IN STRESS PERIOD    2
  ---------------------------------------------------------------------------

         1     2     3     4     5     6     7     8     9    10    11    12    13    14    15
 .............................................................................................
   1   0.00  0.00  0.00  0.00  0.00  0.00  0.00  0.00  0.00  0.00  0.00  0.00  0.00  0.00  0.00
   2   0.00  0.00  0.00  0.00  0.00  0.00  0.00  0.00  0.00  0.00  0.00  0.00  0.00  0.00  0.00
   3   0.00  0.00  0.00  0.00  0.00  0.00  0.00  0.00  0.00  0.00  0.00  0.00  0.00  0.00  0.00
   4   0.00  0.00  0.00  0.00  0.00  0.00  0.00  0.00  0.00  0.00  0.00  0.00  0.00  0.00  0.00
   5   0.00  0.00  0.00  0.00  0.00  0.00  0.00  0.00  0.00  0.00  0.00  0.00  0.00  0.00  0.00
   6   0.00  0.00  0.00  0.00  0.00  0.00  0.00  0.00  0.00  0.00  0.00  0.00  0.00  0.00  0.00
   7   0.00  0.00  0.00  0.00  0.00  0.00  0.00  0.00  0.00  0.00  0.00  0.00  0.00  0.00  0.00
   8   0.00  0.00  0.00  0.00  0.00  0.00  0.00  0.00  0.00  1.23  0.00  0.00  0.00  0.00  0.00
   9   0.00  0.00  0.00  0.00  0.00  0.00  0.00  0.00  2.32 14.10  1.56  0.00  0.00  0.00  0.00
  10   0.00  0.00  0.00  0.00  0.00  0.00  0.00  0.00  0.56  2.55  0.00  0.00  0.00  0.00  0.00
  11   0.00  0.00  0.00  0.00  0.00  0.00  0.00  0.00  0.00  0.00  0.00  0.00  0.00  0.00  0.00
  12   0.00  0.00  0.00  0.00  0.00  0.00  1.83  0.00  0.00  0.00  0.00  0.00  0.00  0.00  0.00
  13   0.00  0.00  0.00  0.00  0.00  0.00  0.00  0.00  0.00  0.00  0.00  0.00  0.00  0.00  0.00
  14   0.00  0.00  0.00  0.00  0.00  0.00  0.00  0.00  0.00  0.00  0.00  0.00  0.00  0.00  0.00
  15   0.00  0.00  0.00  0.00  0.00  0.00  0.00  0.00  0.00  0.00  0.00  0.00  0.00  0.00  0.00
  16   0.00  0.00  0.00  0.00  0.00  0.00  0.00  0.00  0.00  0.00  0.00  0.00  0.00  0.00  0.00
  17   0.00  0.00  0.00  0.00  0.00  0.00  0.00  0.00  0.00  0.00  0.00  0.00  0.00  0.00  0.00
  18   0.00  0.00  0.00  0.00  0.00  0.00  0.00  0.00  0.00  0.00  0.00  0.00  0.00  0.00  0.00
  19   0.00  0.00  0.00  0.00  0.00  0.00  0.00  0.00  0.00  0.00  0.00  0.00  0.00  0.00  0.00
  20   0.00  0.00  0.00  0.00  0.00  0.00  0.00  0.00  0.00  0.00  0.00  0.00  0.00  0.00  0.00
1
  CHANGE IN PCSTRS IN LAYER   2 AT END OF TIME STEP  60 IN STRESS PERIOD    2
  ---------------------------------------------------------------------------

         1     2     3     4     5     6     7     8     9    10    11    12    13    14    15
 .............................................................................................
   1   0.00  0.00  0.00  0.00  0.00  0.00  0.00  0.00  0.00  0.00  0.00  0.00  0.00  0.00  0.00
   2   0.00  0.00  0.00  0.00  0.00  0.00  0.00  0.00  0.00  0.00  0.00  0.00  0.00  0.00  0.00
   3   0.00  0.00  0.00  0.00  0.00  0.00  0.00  0.00  0.00  0.00  0.00  0.00  0.00  0.00  0.00
   4   0.00  0.00  0.00  0.00  0.00  0.00  0.00  0.00  0.00  0.00  0.00  0.00  0.00  0.00  0.00
   5   0.00  0.00  0.00  0.00  0.00  0.00  0.00  0.00  0.00  0.00  0.00  0.00  0.00  0.00  0.00
   6   0.00  0.00  0.00  0.00  0.00  0.00  0.00  0.00  0.00  0.00  0.00  0.00  0.00  0.00  0.00
   7   0.00  0.00  0.00  0.00  0.00  0.00  0.00  0.00  0.00  0.00  0.00  0.00  0.00  0.00  0.00
   8   0.00  0.00  0.00  0.00  0.00  0.00  0.00  0.00  0.00  1.28  0.00  0.00  0.00  0.00  0.00
   9   0.00  0.00  0.00  0.00  0.00  0.00  0.00  0.00  2.36 15.03  1.61  0.00  0.00  0.00  0.00
  10   0.00  0.00  0.00  0.00  0.00  0.00  0.00  0.00  0.58  2.58  0.00  0.00  0.00  0.00  0.00
  11   0.00  0.00  0.00  0.00  0.00  0.00  0.00  0.00  0.00  0.00  0.00  0.00  0.00  0.00  0.00
  12   0.00  0.00  0.00  0.00  0.00  0.00  2.11  0.00  0.00  0.00  0.00  0.00  0.00  0.00  0.00
  13   0.00  0.00  0.00  0.00  0.00  0.00  0.00  0.00  0.00  0.00  0.00  0.00  0.00  0.00  0.00
  14   0.00  0.00  0.00  0.00  0.00  0.00  0.00  0.00  0.00  0.00  0.00  0.00  0.00  0.00  0.00
  15   0.00  0.00  0.00  0.00  0.00  0.00  0.00  0.00  0.00  0.00  0.00  0.00  0.00  0.00  0.00
  16   0.00  0.00  0.00  0.00  0.00  0.00  0.00  0.00  0.00  0.00  0.00  0.00  0.00  0.00  0.00
  17   0.00  0.00  0.00  0.00  0.00  0.00  0.00  0.00  0.00  0.00  0.00  0.00  0.00  0.00  0.00
  18   0.00  0.00  0.00  0.00  0.00  0.00  0.00  0.00  0.00  0.00  0.00  0.00  0.00  0.00  0.00
  19   0.00  0.00  0.00  0.00  0.00  0.00  0.00  0.00  0.00  0.00  0.00  0.00  0.00  0.00  0.00
  20   0.00  0.00  0.00  0.00  0.00  0.00  0.00  0.00  0.00  0.00  0.00  0.00  0.00  0.00  0.00
1
  CHANGE IN PCSTRS IN LAYER   3 AT END OF TIME STEP  60 IN STRESS PERIOD    2
  ---------------------------------------------------------------------------

         1     2     3     4     5     6     7     8     9    10    11    12    13    14    15
 .............................................................................................
   1   0.00  0.00  0.00  0.00  0.00  0.00  0.00  0.00  0.00  0.00  0.00  0.00  0.00  0.00  0.00
   2   0.00  0.00  0.00  0.00  0.00  0.00  0.00  0.00  0.00  0.00  0.00  0.00  0.00  0.00  0.00
   3   0.00  0.00  0.00  0.00  0.00  0.00  0.00  0.00  0.00  0.00  0.00  0.00  0.00  0.00  0.00
   4   0.00  0.00  0.00  0.00  0.00  0.00  0.00  0.00  0.00  0.00  0.00  0.00  0.00  0.00  0.00
   5   0.00  0.00  0.00  0.00  0.00  0.00  0.00  0.00  0.00  0.00  0.00  0.00  0.00  0.00  0.00
   6   0.00  0.00  0.00  0.00  0.00  0.00  0.00  0.00  0.00  0.00  0.00  0.00  0.00  0.00  0.00
   7   0.00  0.00  0.00  0.00  0.00  0.00  0.00  0.00  0.00  0.00  0.00  0.00  0.00  0.00  0.00
   8   0.00  0.00  0.00  0.00  0.00  0.00  0.00  0.00  0.00  0.00  0.00  0.00  0.00  0.00  0.00
   9   0.00  0.00  0.00  0.00  0.00  0.00  0.00  0.00  0.92  6.49  0.15  0.00  0.00  0.00  0.00
  10   0.00  0.00  0.00  0.00  0.00  0.00  0.00  0.00  0.24  1.12  0.00  0.00  0.00  0.00  0.00
  11   0.00  0.00  0.00  0.00  0.00  0.00  2.01  0.57  0.00  0.00  0.00  0.00  0.00  0.00  0.00
  12   0.00  0.00  0.00  0.00  0.00  0.89 11.27  2.00  0.00  0.00  0.00  0.00  0.00  0.00  0.00
  13   0.00  0.00  0.00  0.00  0.00  0.00  0.77  0.00  0.00  0.00  0.00  0.00  0.00  0.00  0.00
  14   0.00  0.00  0.00  0.00  0.00  0.00  0.00  0.00  0.00  0.00  0.00  0.00  0.00  0.00  0.00
  15   0.00  0.00  0.00  0.00  0.00  0.00  0.00  0.00  0.00  0.00  0.00  0.00  0.00  0.00  0.00
  16   0.00  0.00  0.00  0.00  0.00  0.00  0.00  0.00  0.00  0.00  0.00  0.00  0.00  0.00  0.00
  17   0.00  0.00  0.00  0.00  0.00  0.00  0.00  0.00  0.00  0.00  0.00  0.00  0.00  0.00  0.00
  18   0.00  0.00  0.00  0.00  0.00  0.00  0.00  0.00  0.00  0.00  0.00  0.00  0.00  0.00  0.00
  19   0.00  0.00  0.00  0.00  0.00  0.00  0.00  0.00  0.00  0.00  0.00  0.00  0.00  0.00  0.00
  20   0.00  0.00  0.00  0.00  0.00  0.00  0.00  0.00  0.00  0.00  0.00  0.00  0.00  0.00  0.00
1
  CHANGE IN PCSTRS IN LAYER   4 AT END OF TIME STEP  60 IN STRESS PERIOD    2
  ---------------------------------------------------------------------------

         1     2     3     4     5     6     7     8     9    10    11    12    13    14    15
 .............................................................................................
   1   0.00  0.00  0.00  0.00  0.00  0.00  0.00  0.00  0.00  0.00  0.00  0.00  0.00  0.00  0.00
   2   0.00  0.00  0.00  0.00  0.00  0.00  0.00  0.00  0.00  0.00  0.00  0.00  0.00  0.00  0.00
   3   0.00  0.00  0.00  0.00  0.00  0.00  0.00  0.00  0.00  0.00  0.00  0.00  0.00  0.00  0.00
   4   0.00  0.00  0.00  0.00  0.00  0.00  0.00  0.00  0.00  0.00  0.00  0.00  0.00  0.00  0.00
   5   0.00  0.00  0.00  0.00  0.00  0.00  0.00  0.00  0.00  0.00  0.00  0.00  0.00  0.00  0.00
   6   0.00  0.00  0.00  0.00  0.00  0.00  0.00  0.00  0.00  0.00  0.00  0.00  0.00  0.00  0.00
   7   0.00  0.00  0.00  0.00  0.00  0.00  0.00  0.00  0.00  0.00  0.00  0.00  0.00  0.00  0.00
   8   0.00  0.00  0.00  0.00  0.00  0.00  0.00  0.00  0.00  0.00  0.00  0.00  0.00  0.00  0.00
   9   0.00  0.00  0.00  0.00  0.00  0.00  0.00  0.00  0.00  0.00  0.00  0.00  0.00  0.00  0.00
  10   0.00  0.00  0.00  0.00  0.00  0.00  0.00  0.00  0.00  0.00  0.00  0.00  0.00  0.00  0.00
  11   0.00  0.00  0.00  0.00  0.00  0.00  4.14  1.46  0.00  0.00  0.00  0.00  0.00  0.00  0.00
  12   0.00  0.00  0.00  0.00  0.00  3.05 20.67  4.12  0.00  0.00  0.00  0.00  0.00  0.00  0.00
  13   0.00  0.00  0.00  0.00  0.00  0.00  2.91  0.00  0.00  0.00  0.00  0.00  0.00  0.00  0.00
  14   0.00  0.00  0.00  0.00  0.00  0.00  0.00  0.00  0.00  0.00  0.00  0.00  0.00  0.00  0.00
  15   0.00  0.00  0.00  0.00  0.00  0.00  0.00  0.00  0.00  0.00  0.00  0.00  0.00  0.00  0.00
  16   0.00  0.00  0.00  0.00  0.00  0.00  0.00  0.00  0.00  0.00  0.00  0.00  0.00  0.00  0.00
  17   0.00  0.00  0.00  0.00  0.00  0.00  0.00  0.00  0.00  0.00  0.00  0.00  0.00  0.00  0.00
  18   0.00  0.00  0.00  0.00  0.00  0.00  0.00  0.00  0.00  0.00  0.00  0.00  0.00  0.00  0.00
  19   0.00  0.00  0.00  0.00  0.00  0.00  0.00  0.00  0.00  0.00  0.00  0.00  0.00  0.00  0.00
  20   0.00  0.00  0.00  0.00  0.00  0.00  0.00  0.00  0.00  0.00  0.00  0.00  0.00  0.00  0.00
1
  GEOSTATIC STRESS IN LAYER   1 AT END OF TIME STEP  60 IN STRESS PERIOD    2
  ---------------------------------------------------------------------------

           1       2       3       4       5       6       7       8       9      10      11      12      13      14      15
 ...........................................................................................................................
   1    170.0   170.0   170.0   170.0   170.0   195.8   195.9   196.0   195.7   195.6   170.0   170.0   170.0   170.0   170.0
   2    170.0   170.0   170.0   170.0   196.0   195.7   195.7   195.8   195.5   195.4   195.4   195.6   170.0   170.0   170.0
   3    170.0   170.0   170.0   195.7   195.5   195.4   195.3   195.3   195.1   195.1   195.1   195.2   170.0   170.0   170.0
   4    170.0   170.0   170.0   195.2   195.1   195.0   194.8   194.7   194.6   194.6   194.6   194.8   170.0   170.0   170.0
   5    170.0   170.0   194.9   194.7   194.6   194.4   194.3   194.1   193.9   193.9   193.9   194.0   194.0   170.0   170.0
   6    170.0   170.0   194.4   194.2   194.1   193.8   193.6   193.3   193.0   192.9   193.0   193.2   193.3   193.4   170.0
   7    170.0   194.1   193.9   193.7   193.5   193.1   192.8   192.3   191.9   191.6   191.9   192.4   192.7   192.8   170.0
   8    170.0   193.5   193.4   193.2   192.8   192.4   191.9   191.2   190.3   189.3   190.5   191.5   192.1   192.3   170.0
   9    193.0   193.1   192.9   192.6   192.1   191.6   190.9   190.1   188.5   183.5   188.9   190.7   191.6   192.0   192.0
  10    192.9   192.8   192.5   192.1   191.5   190.7   190.0   189.6   189.0   188.1   189.6   190.7   191.4   191.8   192.0
  11    192.7   192.5   192.1   191.6   190.8   189.9   189.0   189.0   189.2   189.4   190.1   190.9   191.4   191.8   191.9
  12    170.0   192.1   191.8   191.3   190.4   189.2   187.8   188.6   189.3   189.9   190.5   191.0   191.5   191.8   191.9
  13    170.0   192.0   191.7   191.2   190.4   189.5   188.8   189.1   189.6   190.2   190.7   191.1   191.5   191.8   170.0
  14    170.0   192.2   191.7   191.2   190.6   190.0   189.6   189.7   190.0   190.4   190.8   191.2   191.6   192.1   170.0
  15    170.0   170.0   191.5   191.2   190.8   190.3   190.0   190.0   190.1   190.5   190.9   191.3   191.6   170.0   170.0
  16    170.0   170.0   191.7   191.2   190.8   190.4   190.1   190.0   190.1   190.4   190.8   191.3   191.8   170.0   170.0
  17    170.0   170.0   170.0   191.1   190.8   190.4   189.9   189.7   189.7   190.1   190.7   191.2   191.8   170.0   170.0
  18    170.0   170.0   170.0   191.3   190.8   190.3   189.5   189.0   189.0   189.6   190.5   191.2   170.0   170.0   170.0
  19    170.0   170.0   170.0   170.0   170.0   170.0   188.9   187.6   187.6   188.6   170.0   170.0   170.0   170.0   170.0
  20    170.0   170.0   170.0   170.0   170.0   170.0   170.0   185.0   185.0   170.0   170.0   170.0   170.0   170.0   170.0
1
  GEOSTATIC STRESS IN LAYER   2 AT END OF TIME STEP  60 IN STRESS PERIOD    2
  ---------------------------------------------------------------------------

           1       2       3       4       5       6       7       8       9      10      11      12      13      14      15
 ...........................................................................................................................
   1    425.0   425.0   425.0   425.0   425.0   495.8   495.9   496.0   495.7   495.6   425.0   425.0   425.0   425.0   425.0
   2    425.0   425.0   425.0   425.0   496.0   495.7   495.7   495.8   495.5   495.4   495.4   495.6   425.0   425.0   425.0
   3    425.0   425.0   425.0   495.7   495.5   495.4   495.3   495.3   495.1   495.1   495.1   495.2   425.0   425.0   425.0
   4    425.0   425.0   425.0   495.2   495.1   495.0   494.8   494.7   494.6   494.6   494.6   494.8   425.0   425.0   425.0
   5    425.0   425.0   494.9   494.7   494.6   494.4   494.3   494.1   493.9   493.9   493.9   494.0   494.0   425.0   425.0
   6    425.0   425.0   494.4   494.2   494.1   493.8   493.6   493.3   493.0   492.9   493.0   493.2   493.3   493.4   425.0
   7    425.0   494.1   493.9   493.7   493.5   493.1   492.8   492.3   491.9   491.6   491.9   492.4   492.7   492.8   425.0
   8    425.0   493.5   493.4   493.2   492.8   492.4   491.9   491.2   490.3   489.3   490.5   491.5   492.1   492.3   425.0
   9    493.0   493.1   492.9   492.6   492.1   491.6   490.9   490.1   488.5   483.5   488.9   490.7   491.6   492.0   492.0
  10    492.9   492.8   492.5   492.1   491.5   490.7   490.0   489.6   489.0   488.1   489.6   490.7   491.4   491.8   492.0
  11    492.7   492.5   492.1   491.6   490.8   489.9   489.0   489.0   489.2   489.4   490.1   490.9   491.4   491.8   491.9
  12    425.0   492.1   491.8   491.3   490.4   489.2   487.8   488.6   489.3   489.9   490.5   491.0   491.5   491.8   491.9
  13    425.0   492.0   491.7   491.2   490.4   489.5   488.8   489.1   489.6   490.2   490.7   491.1   491.5   491.8   425.0
  14    425.0   492.2   491.7   491.2   490.6   490.0   489.6   489.7   490.0   490.4   490.8   491.2   491.6   492.1   425.0
  15    425.0   425.0   491.5   491.2   490.8   490.3   490.0   490.0   490.1   490.5   490.9   491.3   491.6   425.0   425.0
  16    425.0   425.0   491.7   491.2   490.8   490.4   490.1   490.0   490.1   490.4   490.8   491.3   491.8   425.0   425.0
  17    425.0   425.0   425.0   491.1   490.8   490.4   489.9   489.7   489.7   490.1   490.7   491.2   491.8   425.0   425.0
  18    425.0   425.0   425.0   491.3   490.8   490.3   489.5   489.0   489.0   489.6   490.5   491.2   425.0   425.0   425.0
  19    425.0   425.0   425.0   425.0   425.0   425.0   488.9   487.6   487.6   488.6   425.0   425.0   425.0   425.0   425.0
  20    425.0   425.0   425.0   425.0   425.0   425.0   425.0   485.0   485.0   425.0   425.0   425.0   425.0   425.0   425.0
1
  GEOSTATIC STRESS IN LAYER   3 AT END OF TIME STEP  60 IN STRESS PERIOD    2
  ---------------------------------------------------------------------------

           1       2       3       4       5       6       7       8       9      10      11      12      13      14      15
 ...........................................................................................................................
   1    510.0   510.0   510.0   510.0   510.0   595.8   595.9   596.0   595.7   595.6   510.0   510.0   510.0   510.0   510.0
   2    510.0   510.0   510.0   510.0   596.0   595.7   595.7   595.8   595.5   595.4   595.4   595.6   510.0   510.0   510.0
   3    510.0   510.0   510.0   595.7   595.5   595.4   595.3   595.3   595.1   595.1   595.1   595.2   510.0   510.0   510.0
   4    510.0   510.0   510.0   595.2   595.1   595.0   594.8   594.7   594.6   594.6   594.6   594.8   510.0   510.0   510.0
   5    510.0   510.0   594.9   594.7   594.6   594.4   594.3   594.1   593.9   593.9   593.9   594.0   594.0   510.0   510.0
   6    510.0   510.0   594.4   594.2   594.1   593.8   593.6   593.3   593.0   592.9   593.0   593.2   593.3   593.4   510.0
   7    510.0   594.1   593.9   593.7   593.5   593.1   592.8   592.3   591.9   591.6   591.9   592.4   592.7   592.8   510.0
   8    510.0   593.5   593.4   593.2   592.8   592.4   591.9   591.2   590.3   589.3   590.5   591.5   592.1   592.3   510.0
   9    593.0   593.1   592.9   592.6   592.1   591.6   590.9   590.1   588.5   583.5   588.9   590.7   591.6   592.0   592.0
  10    592.9   592.8   592.5   592.1   591.5   590.7   590.0   589.6   589.0   588.1   589.6   590.7   591.4   591.8   592.0
  11    592.7   592.5   592.1   591.6   590.8   589.9   589.0   589.0   589.2   589.4   590.1   590.9   591.4   591.8   591.9
  12    510.0   592.1   591.8   591.3   590.4   589.2   587.8   588.6   589.3   589.9   590.5   591.0   591.5   591.8   591.9
  13    510.0   592.0   591.7   591.2   590.4   589.5   588.8   589.1   589.6   590.2   590.7   591.1   591.5   591.8   510.0
  14    510.0   592.2   591.7   591.2   590.6   590.0   589.6   589.7   590.0   590.4   590.8   591.2   591.6   592.1   510.0
  15    510.0   510.0   591.5   591.2   590.8   590.3   590.0   590.0   590.1   590.5   590.9   591.3   591.6   510.0   510.0
  16    510.0   510.0   591.7   591.2   590.8   590.4   590.1   590.0   590.1   590.4   590.8   591.3   591.8   510.0   510.0
  17    510.0   510.0   510.0   591.1   590.8   590.4   589.9   589.7   589.7   590.1   590.7   591.2   591.8   510.0   510.0
  18    510.0   510.0   510.0   591.3   590.8   590.3   589.5   589.0   589.0   589.6   590.5   591.2   510.0   510.0   510.0
  19    510.0   510.0   510.0   510.0   510.0   510.0   588.9   587.6   587.6   588.6   510.0   510.0   510.0   510.0   510.0
  20    510.0   510.0   510.0   510.0   510.0   510.0   510.0   585.0   585.0   510.0   510.0   510.0   510.0   510.0   510.0
1
  GEOSTATIC STRESS IN LAYER   4 AT END OF TIME STEP  60 IN STRESS PERIOD    2
  ---------------------------------------------------------------------------

           1       2       3       4       5       6       7       8       9      10      11      12      13      14      15
 ...........................................................................................................................
   1    850.0   850.0   850.0   850.0   850.0   995.8   995.9   996.0   995.7   995.6   850.0   850.0   850.0   850.0   850.0
   2    850.0   850.0   850.0   850.0   996.0   995.7   995.7   995.8   995.5   995.4   995.4   995.6   850.0   850.0   850.0
   3    850.0   850.0   850.0   995.7   995.5   995.4   995.3   995.3   995.1   995.1   995.1   995.2   850.0   850.0   850.0
   4    850.0   850.0   850.0   995.2   995.1   995.0   994.8   994.7   994.6   994.6   994.6   994.8   850.0   850.0   850.0
   5    850.0   850.0   994.9   994.7   994.6   994.4   994.3   994.1   993.9   993.9   993.9   994.0   994.0   850.0   850.0
   6    850.0   850.0   994.4   994.2   994.1   993.8   993.6   993.3   993.0   992.9   993.0   993.2   993.3   993.4   850.0
   7    850.0   994.1   993.9   993.7   993.5   993.1   992.8   992.3   991.9   991.6   991.9   992.4   992.7   992.8   850.0
   8    850.0   993.5   993.4   993.2   992.8   992.4   991.9   991.2   990.3   989.3   990.5   991.5   992.1   992.3   850.0
   9    993.0   993.1   992.9   992.6   992.1   991.6   990.9   990.1   988.5   983.5   988.9   990.7   991.6   992.0   992.0
  10    992.9   992.8   992.5   992.1   991.5   990.7   990.0   989.6   989.0   988.1   989.6   990.7   991.4   991.8   992.0
  11    992.7   992.5   992.1   991.6   990.8   989.9   989.0   989.0   989.2   989.4   990.1   990.9   991.4   991.8   991.9
  12    850.0   992.1   991.8   991.3   990.4   989.2   987.8   988.6   989.3   989.9   990.5   991.0   991.5   991.8   991.9
  13    850.0   992.0   991.7   991.2   990.4   989.5   988.8   989.1   989.6   990.2   990.7   991.1   991.5   991.8   850.0
  14    850.0   992.2   991.7   991.2   990.6   990.0   989.6   989.7   990.0   990.4   990.8   991.2   991.6   992.1   850.0
  15    850.0   850.0   991.5   991.2   990.8   990.3   990.0   990.0   990.1   990.5   990.9   991.3   991.6   850.0   850.0
  16    850.0   850.0   991.7   991.2   990.8   990.4   990.1   990.0   990.1   990.4   990.8   991.3   991.8   850.0   850.0
  17    850.0   850.0   850.0   991.1   990.8   990.4   989.9   989.7   989.7   990.1   990.7   991.2   991.8   850.0   850.0
  18    850.0   850.0   850.0   991.3   990.8   990.3   989.5   989.0   989.0   989.6   990.5   991.2   850.0   850.0   850.0
  19    850.0   850.0   850.0   850.0   850.0   850.0   988.9   987.6   987.6   988.6   850.0   850.0   850.0   850.0   850.0
  20    850.0   850.0   850.0   850.0   850.0   850.0   850.0   985.0   985.0   850.0   850.0   850.0   850.0   850.0   850.0
1
  CHANGE IN G-STRS IN LAYER   1 AT END OF TIME STEP  60 IN STRESS PERIOD    2
  ---------------------------------------------------------------------------

           1       2       3       4       5       6       7       8       9      10      11      12      13      14      15
 ...........................................................................................................................
   1     0.00    0.00    0.00    0.00    0.00   -1.90   -1.92   -1.96   -2.01   -2.05    0.00    0.00    0.00    0.00    0.00
   2     0.00    0.00    0.00    0.00   -1.97   -1.97   -2.00   -2.05   -2.12   -2.19   -2.30   -2.34    0.00    0.00    0.00
   3     0.00    0.00    0.00   -2.09   -2.08   -2.11   -2.17   -2.25   -2.33   -2.40   -2.47   -2.50    0.00    0.00    0.00
   4     0.00    0.00    0.00   -2.22   -2.25   -2.32   -2.42   -2.54   -2.65   -2.73   -2.78   -2.80    0.00    0.00    0.00
   5     0.00    0.00   -2.44   -2.42   -2.49   -2.61   -2.77   -2.94   -3.10   -3.20   -3.23   -3.25   -3.37    0.00    0.00
   6     0.00    0.00   -2.57   -2.64   -2.77   -2.97   -3.22   -3.48   -3.73   -3.88   -3.82   -3.70   -3.64   -3.66    0.00
   7     0.00   -2.74   -2.76   -2.89   -3.10   -3.40   -3.76   -4.18   -4.62   -4.93   -4.62   -4.23   -3.95   -3.82    0.00
   8     0.00   -2.85   -2.95   -3.16   -3.47   -3.88   -4.38   -5.00   -5.88   -6.96   -5.75   -4.81   -4.25   -3.98    0.00
   9    -2.91   -2.97   -3.14   -3.44   -3.87   -4.40   -5.01   -5.80   -7.42  -12.47   -7.10   -5.25   -4.41   -4.00   -3.82
  10    -2.97   -3.09   -3.32   -3.71   -4.26   -4.94   -5.61   -6.06   -6.67   -7.52   -6.10   -5.00   -4.32   -3.94   -3.77
  11    -3.02   -3.19   -3.47   -3.92   -4.61   -5.50   -6.36   -6.28   -6.10   -5.93   -5.25   -4.59   -4.10   -3.81   -3.68
  12     0.00   -3.31   -3.54   -4.00   -4.75   -5.87   -7.21   -6.36   -5.65   -5.13   -4.61   -4.16   -3.82   -3.63   -3.59
  13     0.00   -3.32   -3.49   -3.85   -4.42   -5.18   -5.83   -5.46   -4.93   -4.46   -4.06   -3.74   -3.53   -3.43    0.00
  14     0.00   -3.27   -3.34   -3.56   -3.91   -4.32   -4.60   -4.45   -4.14   -3.82   -3.55   -3.34   -3.23   -3.26    0.00
  15     0.00    0.00   -3.16   -3.25   -3.42   -3.60   -3.69   -3.61   -3.43   -3.24   -3.08   -2.96   -2.90    0.00    0.00
  16     0.00    0.00   -3.00   -2.96   -2.99   -3.03   -3.01   -2.93   -2.82   -2.73   -2.67   -2.63   -2.62    0.00    0.00
  17     0.00    0.00    0.00   -2.68   -2.67   -2.61   -2.48   -2.35   -2.28   -2.29   -2.34   -2.38   -2.44    0.00    0.00
  18     0.00    0.00    0.00   -2.53   -2.48   -2.34   -2.02   -1.79   -1.75   -1.88   -2.11   -2.19    0.00    0.00    0.00
  19     0.00    0.00    0.00    0.00    0.00    0.00   -1.53   -1.11   -1.08   -1.45    0.00    0.00    0.00    0.00    0.00
  20     0.00    0.00    0.00    0.00    0.00    0.00    0.00    0.00    0.00    0.00    0.00    0.00    0.00    0.00    0.00
1
  CHANGE IN G-STRS IN LAYER   2 AT END OF TIME STEP  60 IN STRESS PERIOD    2
  ---------------------------------------------------------------------------

           1       2       3       4       5       6       7       8       9      10      11      12      13      14      15
 ...........................................................................................................................
   1     0.00    0.00    0.00    0.00    0.00   -1.90   -1.92   -1.96   -2.01   -2.05    0.00    0.00    0.00    0.00    0.00
   2     0.00    0.00    0.00    0.00   -1.97   -1.97   -2.00   -2.05   -2.12   -2.19   -2.30   -2.34    0.00    0.00    0.00
   3     0.00    0.00    0.00   -2.09   -2.08   -2.11   -2.17   -2.25   -2.33   -2.40   -2.47   -2.50    0.00    0.00    0.00
   4     0.00    0.00    0.00   -2.22   -2.25   -2.32   -2.42   -2.54   -2.65   -2.73   -2.78   -2.80    0.00    0.00    0.00
   5     0.00    0.00   -2.44   -2.42   -2.49   -2.61   -2.77   -2.94   -3.10   -3.20   -3.23   -3.25   -3.37    0.00    0.00
   6     0.00    0.00   -2.57   -2.64   -2.77   -2.97   -3.22   -3.48   -3.73   -3.88   -3.82   -3.70   -3.64   -3.66    0.00
   7     0.00   -2.74   -2.76   -2.89   -3.10   -3.40   -3.76   -4.18   -4.62   -4.93   -4.62   -4.23   -3.95   -3.82    0.00
   8     0.00   -2.85   -2.95   -3.16   -3.47   -3.88   -4.38   -5.00   -5.88   -6.96   -5.75   -4.81   -4.25   -3.98    0.00
   9    -2.91   -2.97   -3.14   -3.44   -3.87   -4.40   -5.01   -5.80   -7.42  -12.47   -7.10   -5.25   -4.41   -4.00   -3.82
  10    -2.97   -3.09   -3.32   -3.71   -4.26   -4.94   -5.61   -6.06   -6.67   -7.52   -6.10   -5.00   -4.32   -3.94   -3.77
  11    -3.02   -3.19   -3.47   -3.92   -4.61   -5.50   -6.36   -6.28   -6.10   -5.93   -5.25   -4.59   -4.10   -3.81   -3.68
  12     0.00   -3.31   -3.54   -4.00   -4.75   -5.87   -7.21   -6.36   -5.65   -5.13   -4.61   -4.16   -3.82   -3.63   -3.59
  13     0.00   -3.32   -3.49   -3.85   -4.42   -5.18   -5.83   -5.46   -4.93   -4.46   -4.06   -3.74   -3.53   -3.43    0.00
  14     0.00   -3.27   -3.34   -3.56   -3.91   -4.32   -4.60   -4.45   -4.14   -3.82   -3.55   -3.34   -3.23   -3.26    0.00
  15     0.00    0.00   -3.16   -3.25   -3.42   -3.60   -3.69   -3.61   -3.43   -3.24   -3.08   -2.96   -2.90    0.00    0.00
  16     0.00    0.00   -3.00   -2.96   -2.99   -3.03   -3.01   -2.93   -2.82   -2.73   -2.67   -2.63   -2.62    0.00    0.00
  17     0.00    0.00    0.00   -2.68   -2.67   -2.61   -2.48   -2.35   -2.28   -2.29   -2.34   -2.38   -2.44    0.00    0.00
  18     0.00    0.00    0.00   -2.53   -2.48   -2.34   -2.02   -1.79   -1.75   -1.88   -2.11   -2.19    0.00    0.00    0.00
  19     0.00    0.00    0.00    0.00    0.00    0.00   -1.53   -1.11   -1.08   -1.45    0.00    0.00    0.00    0.00    0.00
  20     0.00    0.00    0.00    0.00    0.00    0.00    0.00    0.00    0.00    0.00    0.00    0.00    0.00    0.00    0.00
1
  CHANGE IN G-STRS IN LAYER   3 AT END OF TIME STEP  60 IN STRESS PERIOD    2
  ---------------------------------------------------------------------------

           1       2       3       4       5       6       7       8       9      10      11      12      13      14      15
 ...........................................................................................................................
   1     0.00    0.00    0.00    0.00    0.00   -1.90   -1.92   -1.96   -2.01   -2.05    0.00    0.00    0.00    0.00    0.00
   2     0.00    0.00    0.00    0.00   -1.97   -1.97   -2.00   -2.05   -2.12   -2.19   -2.30   -2.34    0.00    0.00    0.00
   3     0.00    0.00    0.00   -2.09   -2.08   -2.11   -2.17   -2.25   -2.33   -2.40   -2.47   -2.50    0.00    0.00    0.00
   4     0.00    0.00    0.00   -2.22   -2.25   -2.32   -2.42   -2.54   -2.65   -2.73   -2.78   -2.80    0.00    0.00    0.00
   5     0.00    0.00   -2.44   -2.42   -2.49   -2.61   -2.77   -2.94   -3.10   -3.20   -3.23   -3.25   -3.37    0.00    0.00
   6     0.00    0.00   -2.57   -2.64   -2.77   -2.97   -3.22   -3.48   -3.73   -3.88   -3.82   -3.70   -3.64   -3.66    0.00
   7     0.00   -2.74   -2.76   -2.89   -3.10   -3.40   -3.76   -4.18   -4.62   -4.93   -4.62   -4.23   -3.95   -3.82    0.00
   8     0.00   -2.85   -2.95   -3.16   -3.47   -3.88   -4.38   -5.00   -5.88   -6.96   -5.75   -4.81   -4.25   -3.98    0.00
   9    -2.91   -2.97   -3.14   -3.44   -3.87   -4.40   -5.01   -5.80   -7.42  -12.47   -7.10   -5.25   -4.41   -4.00   -3.82
  10    -2.97   -3.09   -3.32   -3.71   -4.26   -4.94   -5.61   -6.06   -6.67   -7.52   -6.10   -5.00   -4.32   -3.94   -3.77
  11    -3.02   -3.19   -3.47   -3.92   -4.61   -5.50   -6.36   -6.28   -6.10   -5.93   -5.25   -4.59   -4.10   -3.81   -3.68
  12     0.00   -3.31   -3.54   -4.00   -4.75   -5.87   -7.21   -6.36   -5.65   -5.13   -4.61   -4.16   -3.82   -3.63   -3.59
  13     0.00   -3.32   -3.49   -3.85   -4.42   -5.18   -5.83   -5.46   -4.93   -4.46   -4.06   -3.74   -3.53   -3.43    0.00
  14     0.00   -3.27   -3.34   -3.56   -3.91   -4.32   -4.60   -4.45   -4.14   -3.82   -3.55   -3.34   -3.23   -3.26    0.00
  15     0.00    0.00   -3.16   -3.25   -3.42   -3.60   -3.69   -3.61   -3.43   -3.24   -3.08   -2.96   -2.90    0.00    0.00
  16     0.00    0.00   -3.00   -2.96   -2.99   -3.03   -3.01   -2.93   -2.82   -2.73   -2.67   -2.63   -2.62    0.00    0.00
  17     0.00    0.00    0.00   -2.68   -2.67   -2.61   -2.48   -2.35   -2.28   -2.29   -2.34   -2.38   -2.44    0.00    0.00
  18     0.00    0.00    0.00   -2.53   -2.48   -2.34   -2.02   -1.79   -1.75   -1.88   -2.11   -2.19    0.00    0.00    0.00
  19     0.00    0.00    0.00    0.00    0.00    0.00   -1.53   -1.11   -1.08   -1.45    0.00    0.00    0.00    0.00    0.00
  20     0.00    0.00    0.00    0.00    0.00    0.00    0.00    0.00    0.00    0.00    0.00    0.00    0.00    0.00    0.00
1
  CHANGE IN G-STRS IN LAYER   4 AT END OF TIME STEP  60 IN STRESS PERIOD    2
  ---------------------------------------------------------------------------

           1       2       3       4       5       6       7       8       9      10      11      12      13      14      15
 ...........................................................................................................................
   1     0.00    0.00    0.00    0.00    0.00   -1.90   -1.92   -1.96   -2.01   -2.05    0.00    0.00    0.00    0.00    0.00
   2     0.00    0.00    0.00    0.00   -1.97   -1.97   -2.00   -2.05   -2.12   -2.19   -2.30   -2.34    0.00    0.00    0.00
   3     0.00    0.00    0.00   -2.09   -2.08   -2.11   -2.17   -2.25   -2.33   -2.40   -2.47   -2.50    0.00    0.00    0.00
   4     0.00    0.00    0.00   -2.22   -2.25   -2.32   -2.42   -2.54   -2.65   -2.73   -2.78   -2.80    0.00    0.00    0.00
   5     0.00    0.00   -2.44   -2.42   -2.49   -2.61   -2.77   -2.94   -3.10   -3.20   -3.23   -3.25   -3.37    0.00    0.00
   6     0.00    0.00   -2.57   -2.64   -2.77   -2.97   -3.22   -3.48   -3.73   -3.88   -3.82   -3.70   -3.64   -3.66    0.00
   7     0.00   -2.74   -2.76   -2.89   -3.10   -3.40   -3.76   -4.18   -4.62   -4.93   -4.62   -4.23   -3.95   -3.82    0.00
   8     0.00   -2.85   -2.95   -3.16   -3.47   -3.88   -4.38   -5.00   -5.88   -6.96   -5.75   -4.81   -4.25   -3.98    0.00
   9    -2.91   -2.97   -3.14   -3.44   -3.87   -4.40   -5.01   -5.80   -7.42  -12.47   -7.10   -5.25   -4.41   -4.00   -3.82
  10    -2.97   -3.09   -3.32   -3.71   -4.26   -4.94   -5.61   -6.06   -6.67   -7.52   -6.10   -5.00   -4.32   -3.94   -3.77
  11    -3.02   -3.19   -3.47   -3.92   -4.61   -5.50   -6.36   -6.28   -6.10   -5.93   -5.25   -4.59   -4.10   -3.81   -3.68
  12     0.00   -3.31   -3.54   -4.00   -4.75   -5.87   -7.21   -6.36   -5.65   -5.13   -4.61   -4.16   -3.82   -3.63   -3.59
  13     0.00   -3.32   -3.49   -3.85   -4.42   -5.18   -5.83   -5.46   -4.93   -4.46   -4.06   -3.74   -3.53   -3.43    0.00
  14     0.00   -3.27   -3.34   -3.56   -3.91   -4.32   -4.60   -4.45   -4.14   -3.82   -3.55   -3.34   -3.23   -3.26    0.00
  15     0.00    0.00   -3.16   -3.25   -3.42   -3.60   -3.69   -3.61   -3.43   -3.24   -3.08   -2.96   -2.90    0.00    0.00
  16     0.00    0.00   -3.00   -2.96   -2.99   -3.03   -3.01   -2.93   -2.82   -2.73   -2.67   -2.63   -2.62    0.00    0.00
  17     0.00    0.00    0.00   -2.68   -2.67   -2.61   -2.48   -2.35   -2.28   -2.29   -2.34   -2.38   -2.44    0.00    0.00
  18     0.00    0.00    0.00   -2.53   -2.48   -2.34   -2.02   -1.79   -1.75   -1.88   -2.11   -2.19    0.00    0.00    0.00
  19     0.00    0.00    0.00    0.00    0.00    0.00   -1.53   -1.11   -1.08   -1.45    0.00    0.00    0.00    0.00    0.00
  20     0.00    0.00    0.00    0.00    0.00    0.00    0.00    0.00    0.00    0.00    0.00    0.00    0.00    0.00    0.00
1
  EFFECTIVE STRESS IN LAYER   1 AT END OF TIME STEP  60 IN STRESS PERIOD    2
  ---------------------------------------------------------------------------

           1       2       3       4       5       6       7       8       9      10      11      12      13      14      15
 ...........................................................................................................................
   1      0.0     0.0     0.0     0.0     0.0   109.7   109.7   109.3   109.9   110.2     0.0     0.0     0.0     0.0     0.0
   2      0.0     0.0     0.0     0.0   109.4   110.0   110.1   109.8   110.4   110.7   110.8   110.2     0.0     0.0     0.0
   3      0.0     0.0     0.0   110.0   110.4   110.7   110.9   111.0   111.3   111.5   111.5   111.3     0.0     0.0     0.0
   4      0.0     0.0     0.0   111.2   111.4   111.7   112.0   112.3   112.6   112.7   112.6   112.1     0.0     0.0     0.0
   5      0.0     0.0   111.9   112.3   112.6   113.0   113.4   113.8   114.2   114.3   114.3   114.0   114.0     0.0     0.0
   6      0.0     0.0   113.2   113.4   113.9   114.4   115.0   115.7   116.2   116.5   116.3   115.9   115.6   115.3     0.0
   7      0.0   113.8   114.2   114.7   115.3   116.0   116.9   117.9   118.9   119.6   118.8   117.8   117.1   116.7     0.0
   8      0.0   115.1   115.4   116.0   116.8   117.8   119.0   120.5   122.5   125.0   122.1   119.9   118.5   117.9     0.0
   9    116.2   116.1   116.5   117.3   118.3   119.7   121.2   123.0   126.8   138.6   126.0   121.6   119.6   118.7   118.6
  10    116.6   116.9   117.5   118.5   119.9   121.6   123.2   124.3   125.8   127.7   124.3   121.7   120.0   119.1   118.8
  11    116.9   117.6   118.4   119.6   121.4   123.6   125.7   125.6   125.2   124.7   123.0   121.3   120.1   119.2   118.9
  12      0.0   118.3   119.1   120.4   122.4   125.2   128.5   126.6   124.9   123.7   122.3   121.0   119.9   119.2   118.9
  13      0.0   118.6   119.4   120.6   122.3   124.4   126.2   125.4   124.2   123.0   121.8   120.7   119.8   119.1     0.0
  14      0.0   118.2   119.5   120.6   121.9   123.3   124.3   124.1   123.4   122.4   121.4   120.5   119.6   118.5     0.0
  15      0.0     0.0   119.7   120.5   121.6   122.6   123.3   123.4   123.0   122.2   121.3   120.4   119.7     0.0     0.0
  16      0.0     0.0   119.3   120.5   121.4   122.3   123.1   123.4   123.1   122.4   121.4   120.3   119.2     0.0     0.0
  17      0.0     0.0     0.0   120.7   121.5   122.5   123.5   124.1   123.9   123.1   121.7   120.4   119.1     0.0     0.0
  18      0.0     0.0     0.0   120.3   121.5   122.7   124.4   125.7   125.7   124.3   122.2   120.5     0.0     0.0     0.0
  19      0.0     0.0     0.0     0.0     0.0     0.0   125.8   128.9   129.0   126.6     0.0     0.0     0.0     0.0     0.0
  20      0.0     0.0     0.0     0.0     0.0     0.0     0.0   135.0   135.0     0.0     0.0     0.0     0.0     0.0     0.0
1
  EFFECTIVE STRESS IN LAYER   2 AT END OF TIME STEP  60 IN STRESS PERIOD    2
  ---------------------------------------------------------------------------

           1       2       3       4       5       6       7       8       9      10      11      12      13      14      15
 ...........................................................................................................................
   1      0.0     0.0     0.0     0.0     0.0   259.8   259.7   259.4   260.0   260.2     0.0     0.0     0.0     0.0     0.0
   2      0.0     0.0     0.0     0.0   259.6   260.0   260.1   259.9   260.4   260.7   260.8   260.4     0.0     0.0     0.0
   3      0.0     0.0     0.0   260.2   260.4   260.7   260.9   261.1   261.4   261.5   261.5   261.3     0.0     0.0     0.0
   4      0.0     0.0     0.0   261.3   261.5   261.8   262.1   262.3   262.6   262.7   262.6   262.2     0.0     0.0     0.0
   5      0.0     0.0   262.1   262.3   262.6   263.0   263.4   263.9   264.2   264.4   264.3   264.1   264.2     0.0     0.0
   6      0.0     0.0   263.2   263.5   263.9   264.4   265.1   265.7   266.3   266.6   266.3   265.9   265.6   265.5     0.0
   7      0.0   264.0   264.3   264.7   265.3   266.1   266.9   267.9   269.0   269.7   268.9   267.9   267.1   266.8     0.0
   8      0.0   265.1   265.4   266.0   266.8   267.8   269.0   270.5   272.5   275.1   272.2   269.9   268.6   267.9     0.0
   9    266.3   266.1   266.5   267.3   268.4   269.7   271.2   273.0   276.8   289.5   276.0   271.6   269.7   268.8   268.6
  10    266.6   266.9   267.5   268.5   269.9   271.6   273.3   274.4   275.8   277.7   274.3   271.7   270.1   269.1   268.8
  11    267.0   267.6   268.4   269.6   271.4   273.7   275.8   275.7   275.2   274.8   273.1   271.4   270.1   269.3   268.9
  12      0.0   268.4   269.1   270.4   272.4   275.3   278.8   276.7   275.0   273.7   272.3   271.0   270.0   269.3   268.9
  13      0.0   268.6   269.4   270.7   272.4   274.5   276.3   275.5   274.2   273.0   271.8   270.7   269.8   269.2     0.0
  14      0.0   268.4   269.5   270.6   271.9   273.3   274.3   274.2   273.4   272.5   271.5   270.5   269.6   268.7     0.0
  15      0.0     0.0   269.8   270.6   271.6   272.6   273.3   273.4   273.0   272.3   271.3   270.4   269.7     0.0     0.0
  16      0.0     0.0   269.4   270.5   271.5   272.4   273.1   273.4   273.2   272.4   271.4   270.4   269.3     0.0     0.0
  17      0.0     0.0     0.0   270.8   271.5   272.5   273.5   274.1   274.0   273.1   271.8   270.5   269.2     0.0     0.0
  18      0.0     0.0     0.0   270.4   271.5   272.8   274.5   275.8   275.7   274.4   272.2   270.6     0.0     0.0     0.0
  19      0.0     0.0     0.0     0.0     0.0     0.0   276.0   278.9   279.0   276.6     0.0     0.0     0.0     0.0     0.0
  20      0.0     0.0     0.0     0.0     0.0     0.0     0.0   285.0   285.0     0.0     0.0     0.0     0.0     0.0     0.0
1
  EFFECTIVE STRESS IN LAYER   3 AT END OF TIME STEP  60 IN STRESS PERIOD    2
  ---------------------------------------------------------------------------

           1       2       3       4       5       6       7       8       9      10      11      12      13      14      15
 ...........................................................................................................................
   1      0.0     0.0     0.0     0.0     0.0   310.0   310.0   309.9   310.3   310.5     0.0     0.0     0.0     0.0     0.0
   2      0.0     0.0     0.0     0.0   310.1   310.3   310.4   310.4   310.7   310.9   311.1   311.0     0.0     0.0     0.0
   3      0.0     0.0     0.0   310.7   310.8   311.0   311.2   311.3   311.6   311.7   311.8   311.7     0.0     0.0     0.0
   4      0.0     0.0     0.0   311.6   311.7   312.0   312.3   312.6   312.8   312.9   312.9   312.7     0.0     0.0     0.0
   5      0.0     0.0   312.6   312.6   312.8   313.2   313.6   314.1   314.4   314.6   314.5   314.4   314.8     0.0     0.0
   6      0.0     0.0   313.5   313.7   314.1   314.6   315.3   315.9   316.4   316.7   316.5   316.2   316.0   316.1     0.0
   7      0.0   314.6   314.6   314.9   315.5   316.3   317.1   318.1   319.0   319.5   318.9   318.0   317.4   317.1     0.0
   8      0.0   315.4   315.7   316.2   317.0   318.1   319.2   320.6   322.1   323.6   321.8   320.0   318.8   318.2     0.0
   9    316.5   316.4   316.8   317.5   318.6   320.0   321.4   323.0   325.4   330.9   324.6   321.5   319.8   319.0   318.8
  10    316.8   317.1   317.8   318.8   320.3   322.1   323.9   324.6   325.4   326.3   323.9   321.7   320.2   319.4   319.0
  11    317.2   317.8   318.6   319.9   321.9   324.6   327.9   326.5   325.5   324.7   323.1   321.5   320.3   319.5   319.1
  12      0.0   318.6   319.3   320.7   323.1   327.4   338.0   328.8   325.6   323.9   322.5   321.2   320.2   319.5   319.2
  13      0.0   319.0   319.7   321.0   322.8   325.4   328.3   326.4   324.6   323.3   322.0   320.9   320.1   319.5     0.0
  14      0.0   318.9   319.8   320.9   322.2   323.8   325.0   324.6   323.7   322.7   321.7   320.7   319.9   319.3     0.0
  15      0.0     0.0   320.1   320.8   321.8   322.9   323.6   323.7   323.2   322.5   321.6   320.7   320.1     0.0     0.0
  16      0.0     0.0   320.0   320.8   321.7   322.6   323.3   323.6   323.3   322.6   321.6   320.7   319.9     0.0     0.0
  17      0.0     0.0     0.0   321.1   321.7   322.7   323.7   324.3   324.1   323.3   322.0   320.8   319.9     0.0     0.0
  18      0.0     0.0     0.0   321.0   321.8   323.0   324.7   325.9   325.9   324.5   322.5   321.2     0.0     0.0     0.0
  19      0.0     0.0     0.0     0.0     0.0     0.0   326.5   329.1   329.1   326.8     0.0     0.0     0.0     0.0     0.0
  20      0.0     0.0     0.0     0.0     0.0     0.0     0.0   335.0   335.0     0.0     0.0     0.0     0.0     0.0     0.0
1
  EFFECTIVE STRESS IN LAYER   4 AT END OF TIME STEP  60 IN STRESS PERIOD    2
  ---------------------------------------------------------------------------

           1       2       3       4       5       6       7       8       9      10      11      12      13      14      15
 ...........................................................................................................................
   1      0.0     0.0     0.0     0.0     0.0   510.2   510.3   510.5   510.6   510.7     0.0     0.0     0.0     0.0     0.0
   2      0.0     0.0     0.0     0.0   510.7   510.6   510.7   510.9   511.0   511.2   511.4   511.5     0.0     0.0     0.0
   3      0.0     0.0     0.0   511.3   511.1   511.2   511.4   511.6   511.8   512.0   512.1   512.1     0.0     0.0     0.0
   4      0.0     0.0     0.0   511.9   512.0   512.2   512.5   512.8   513.0   513.2   513.2   513.3     0.0     0.0     0.0
   5      0.0     0.0   513.2   512.9   513.1   513.4   513.8   514.3   514.6   514.8   514.8   514.8   515.4     0.0     0.0
   6      0.0     0.0   513.8   514.0   514.3   514.9   515.5   516.1   516.6   516.8   516.7   516.4   516.4   516.7     0.0
   7      0.0   515.1   514.9   515.2   515.7   516.5   517.3   518.2   519.0   519.4   519.0   518.2   517.6   517.4     0.0
   8      0.0   515.7   515.9   516.5   517.3   518.3   519.4   520.6   521.7   522.1   521.4   520.0   519.0   518.4     0.0
   9    516.7   516.6   517.0   517.8   518.9   520.2   521.7   522.9   523.9   522.2   523.1   521.4   520.0   519.2   519.1
  10    517.1   517.4   518.0   519.0   520.6   522.5   524.5   524.9   525.1   524.8   523.5   521.8   520.4   519.6   519.2
  11    517.4   518.1   518.9   520.2   522.3   525.6   530.0   527.4   525.7   524.6   523.2   521.7   520.5   519.7   519.4
  12      0.0   518.9   519.6   521.1   523.7   529.6   547.4   530.9   526.2   524.2   522.7   521.4   520.4   519.8   519.4
  13      0.0   519.3   520.0   521.2   523.3   526.4   530.5   527.4   525.1   523.5   522.3   521.2   520.3   519.8     0.0
  14      0.0   519.5   520.1   521.2   522.6   524.2   525.6   525.0   524.0   522.9   521.9   521.0   520.3   519.8     0.0
  15      0.0     0.0   520.4   521.1   522.1   523.2   523.9   524.0   523.5   522.7   521.8   520.9   520.4     0.0     0.0
  16      0.0     0.0   520.6   521.1   521.9   522.8   523.5   523.8   523.5   522.8   521.9   521.0   520.5     0.0     0.0
  17      0.0     0.0     0.0   521.4   522.0   522.9   523.9   524.5   524.3   523.5   522.2   521.2   520.6     0.0     0.0
  18      0.0     0.0     0.0   521.6   522.1   523.2   524.9   526.1   526.1   524.7   522.8   521.8     0.0     0.0     0.0
  19      0.0     0.0     0.0     0.0     0.0     0.0   527.0   529.3   529.3   526.9     0.0     0.0     0.0     0.0     0.0
  20      0.0     0.0     0.0     0.0     0.0     0.0     0.0   535.0   535.0     0.0     0.0     0.0     0.0     0.0     0.0
1
  CHANGE IN EFF-ST IN LAYER   1 AT END OF TIME STEP  60 IN STRESS PERIOD    2
  ---------------------------------------------------------------------------

         1     2     3     4     5     6     7     8     9    10    11    12    13    14    15
 .............................................................................................
   1   0.00  0.00  0.00  0.00  0.00  4.42  4.48  4.57  4.69  4.79  0.00  0.00  0.00  0.00  0.00
   2   0.00  0.00  0.00  0.00  4.60  4.60  4.68  4.79  4.95  5.12  5.37  5.47  0.00  0.00  0.00
   3   0.00  0.00  0.00  4.89  4.86  4.92  5.06  5.24  5.43  5.61  5.77  5.84  0.00  0.00  0.00
   4   0.00  0.00  0.00  5.18  5.25  5.42  5.65  5.92  6.18  6.37  6.49  6.53  0.00  0.00  0.00
   5   0.00  0.00  5.68  5.64  5.80  6.09  6.46  6.87  7.24  7.48  7.54  7.58  7.87  0.00  0.00
   6   0.00  0.00  6.01  6.15  6.47  6.93  7.50  8.13  8.71  9.06  8.92  8.64  8.49  8.53  0.00
   7   0.00  6.40  6.44  6.74  7.24  7.93  8.77  9.74 10.78 11.51 10.79  9.87  9.22  8.91  0.00
   8   0.00  6.65  6.88  7.37  8.11  9.06 10.22 11.67 13.72 16.23 13.42 11.22  9.91  9.29  0.00
   9   6.79  6.93  7.33  8.03  9.02 10.27 11.70 13.53 17.32 29.10 16.56 12.24 10.29  9.34  8.92
  10   6.93  7.20  7.76  8.66  9.94 11.52 13.08 14.14 15.56 17.55 14.23 11.68 10.09  9.20  8.80
  11   7.06  7.45  8.09  9.16 10.75 12.84 14.84 14.64 14.24 13.83 12.25 10.70  9.57  8.88  8.59
  12   0.00  7.73  8.26  9.33 11.07 13.70 16.83 14.84 13.18 11.98 10.77  9.70  8.92  8.47  8.38
  13   0.00  7.75  8.13  8.97 10.31 12.08 13.60 12.74 11.49 10.41  9.48  8.73  8.23  8.01  0.00
  14   0.00  7.62  7.80  8.32  9.13 10.09 10.74 10.39  9.67  8.92  8.28  7.80  7.54  7.61  0.00
  15   0.00  0.00  7.38  7.58  7.97  8.39  8.61  8.42  8.01  7.57  7.19  6.91  6.77  0.00  0.00
  16   0.00  0.00  6.99  6.90  6.98  7.07  7.03  6.83  6.59  6.38  6.23  6.14  6.11  0.00  0.00
  17   0.00  0.00  0.00  6.26  6.22  6.08  5.78  5.49  5.33  5.34  5.46  5.55  5.70  0.00  0.00
  18   0.00  0.00  0.00  5.89  5.79  5.46  4.71  4.18  4.08  4.39  4.92  5.11  0.00  0.00  0.00
  19   0.00  0.00  0.00  0.00  0.00  0.00  3.57  2.59  2.53  3.39  0.00  0.00  0.00  0.00  0.00
  20   0.00  0.00  0.00  0.00  0.00  0.00  0.00  0.00  0.00  0.00  0.00  0.00  0.00  0.00  0.00
1
  CHANGE IN EFF-ST IN LAYER   2 AT END OF TIME STEP  60 IN STRESS PERIOD    2
  ---------------------------------------------------------------------------

         1     2     3     4     5     6     7     8     9    10    11    12    13    14    15
 .............................................................................................
   1   0.00  0.00  0.00  0.00  0.00  4.46  4.51  4.60  4.72  4.82  0.00  0.00  0.00  0.00  0.00
   2   0.00  0.00  0.00  0.00  4.63  4.63  4.71  4.82  4.98  5.15  5.41  5.50  0.00  0.00  0.00
   3   0.00  0.00  0.00  4.92  4.89  4.96  5.10  5.28  5.47  5.65  5.80  5.88  0.00  0.00  0.00
   4   0.00  0.00  0.00  5.22  5.29  5.45  5.69  5.96  6.21  6.41  6.53  6.57  0.00  0.00  0.00
   5   0.00  0.00  5.72  5.68  5.84  6.13  6.50  6.91  7.28  7.52  7.58  7.62  7.91  0.00  0.00
   6   0.00  0.00  6.04  6.19  6.50  6.97  7.54  8.17  8.75  9.09  8.96  8.67  8.53  8.57  0.00
   7   0.00  6.43  6.48  6.77  7.28  7.97  8.81  9.78 10.82 11.55 10.83  9.91  9.26  8.95  0.00
   8   0.00  6.69  6.92  7.41  8.15  9.10 10.26 11.70 13.75 16.28 13.44 11.26  9.95  9.33  0.00
   9   6.83  6.96  7.37  8.07  9.06 10.31 11.74 13.56 17.36 30.03 16.61 12.27 10.33  9.38  8.96
  10   6.96  7.24  7.79  8.70  9.98 11.57 13.13 14.18 15.58 17.58 14.25 11.71 10.13  9.24  8.84
  11   7.09  7.49  8.13  9.20 10.79 12.91 14.93 14.70 14.28 13.86 12.28 10.74  9.60  8.92  8.63
  12   0.00  7.77  8.30  9.37 11.13 13.80 17.11 14.94 13.23 12.02 10.81  9.74  8.96  8.51  8.42
  13   0.00  7.78  8.17  9.01 10.36 12.14 13.69 12.79 11.54 10.45  9.52  8.77  8.27  8.05  0.00
  14   0.00  7.66  7.84  8.35  9.17 10.13 10.78 10.44  9.70  8.96  8.32  7.84  7.57  7.65  0.00
  15   0.00  0.00  7.41  7.62  8.00  8.43  8.65  8.46  8.04  7.60  7.22  6.95  6.80  0.00  0.00
  16   0.00  0.00  7.03  6.93  7.02  7.10  7.06  6.86  6.62  6.41  6.26  6.17  6.14  0.00  0.00
  17   0.00  0.00  0.00  6.30  6.25  6.11  5.80  5.51  5.35  5.37  5.49  5.58  5.73  0.00  0.00
  18   0.00  0.00  0.00  5.92  5.82  5.49  4.73  4.20  4.09  4.41  4.95  5.14  0.00  0.00  0.00
  19   0.00  0.00  0.00  0.00  0.00  0.00  3.58  2.59  2.53  3.41  0.00  0.00  0.00  0.00  0.00
  20   0.00  0.00  0.00  0.00  0.00  0.00  0.00  0.00  0.00  0.00  0.00  0.00  0.00  0.00  0.00
1
  CHANGE IN EFF-ST IN LAYER   3 AT END OF TIME STEP  60 IN STRESS PERIOD    2
  ---------------------------------------------------------------------------

         1     2     3     4     5     6     7     8     9    10    11    12    13    14    15
 .............................................................................................
   1   0.00  0.00  0.00  0.00  0.00  4.64  4.69  4.79  4.91  5.00  0.00  0.00  0.00  0.00  0.00
   2   0.00  0.00  0.00  0.00  4.82  4.82  4.89  5.02  5.17  5.34  5.60  5.70  0.00  0.00  0.00
   3   0.00  0.00  0.00  5.11  5.08  5.15  5.29  5.47  5.66  5.84  5.99  6.07  0.00  0.00  0.00
   4   0.00  0.00  0.00  5.41  5.48  5.64  5.88  6.15  6.41  6.60  6.72  6.78  0.00  0.00  0.00
   5   0.00  0.00  5.92  5.87  6.03  6.32  6.70  7.10  7.47  7.70  7.77  7.82  8.13  0.00  0.00
   6   0.00  0.00  6.24  6.38  6.70  7.17  7.74  8.36  8.91  9.23  9.12  8.87  8.74  8.80  0.00
   7   0.00  6.65  6.68  6.98  7.49  8.18  9.01  9.93 10.85 11.41 10.86 10.05  9.45  9.17  0.00
   8   0.00  6.89  7.13  7.62  8.36  9.32 10.45 11.75 13.34 14.84 13.04 11.29 10.12  9.53  0.00
   9   7.04  7.17  7.58  8.29  9.30 10.57 11.98 13.48 15.92 21.49 15.15 12.14 10.47  9.59  9.18
  10   7.17  7.45  8.01  8.94 10.29 12.01 13.73 14.43 15.24 16.12 13.84 11.74 10.30  9.45  9.06
  11   7.30  7.71  8.36  9.48 11.24 13.86 17.01 15.57 14.52 13.77 12.33 10.89  9.80  9.14  8.85
  12   0.00  7.99  8.53  9.68 11.77 15.89 26.27 17.00 13.81 12.24 10.99  9.94  9.17  8.73  8.64
  13   0.00  8.00  8.40  9.29 10.80 13.08 15.77 13.72 11.96 10.70  9.73  8.98  8.48  8.27  0.00
  14   0.00  7.88  8.05  8.59  9.46 10.56 11.40 10.86  9.99  9.18  8.52  8.04  7.78  7.87  0.00
  15   0.00  0.00  7.62  7.82  8.23  8.68  8.93  8.70  8.25  7.80  7.41  7.14  7.00  0.00  0.00
  16   0.00  0.00  7.23  7.12  7.21  7.29  7.25  7.04  6.79  6.58  6.44  6.36  6.34  0.00  0.00
  17   0.00  0.00  0.00  6.48  6.43  6.28  5.96  5.65  5.49  5.51  5.65  5.75  5.92  0.00  0.00
  18   0.00  0.00  0.00  6.11  5.99  5.64  4.85  4.30  4.19  4.53  5.10  5.31  0.00  0.00  0.00
  19   0.00  0.00  0.00  0.00  0.00  0.00  3.68  2.63  2.57  3.49  0.00  0.00  0.00  0.00  0.00
  20   0.00  0.00  0.00  0.00  0.00  0.00  0.00  0.00  0.00  0.00  0.00  0.00  0.00  0.00  0.00
1
  CHANGE IN EFF-ST IN LAYER   4 AT END OF TIME STEP  60 IN STRESS PERIOD    2
  ---------------------------------------------------------------------------

         1     2     3     4     5     6     7     8     9    10    11    12    13    14    15
 .............................................................................................
   1   0.00  0.00  0.00  0.00  0.00  4.82  4.88  4.98  5.10  5.19  0.00  0.00  0.00  0.00  0.00
   2   0.00  0.00  0.00  0.00  5.02  5.00  5.08  5.21  5.36  5.53  5.79  5.91  0.00  0.00  0.00
   3   0.00  0.00  0.00  5.31  5.27  5.34  5.48  5.66  5.85  6.03  6.19  6.28  0.00  0.00  0.00
   4   0.00  0.00  0.00  5.60  5.67  5.84  6.08  6.35  6.60  6.80  6.92  6.99  0.00  0.00  0.00
   5   0.00  0.00  6.13  6.07  6.23  6.52  6.90  7.30  7.66  7.89  7.97  8.03  8.36  0.00  0.00
   6   0.00  0.00  6.45  6.59  6.91  7.37  7.94  8.55  9.08  9.36  9.29  9.06  8.96  9.03  0.00
   7   0.00  6.86  6.89  7.19  7.70  8.39  9.20 10.08 10.89 11.28 10.89 10.21  9.65  9.39  0.00
   8   0.00  7.10  7.34  7.84  8.59  9.54 10.64 11.80 12.93 13.37 12.62 11.32 10.29  9.74  0.00
   9   7.25  7.39  7.80  8.52  9.55 10.85 12.23 13.40 14.45 12.77 13.67 12.00 10.62  9.80  9.40
  10   7.39  7.66  8.24  9.19 10.60 12.45 14.34 14.68 14.90 14.64 13.42 11.78 10.48  9.67  9.29
  11   7.52  7.92  8.60  9.76 11.70 14.83 19.14 16.46 14.77 13.68 12.37 11.05 10.01  9.36  9.08
  12   0.00  8.21  8.78 10.00 12.43 18.05 35.67 19.12 14.40 12.48 11.18 10.14  9.38  8.96  8.87
  13   0.00  8.22  8.63  9.57 11.25 14.05 17.91 14.68 12.39 10.96  9.95  9.19  8.70  8.49  0.00
  14   0.00  8.10  8.27  8.82  9.76 11.00 12.04 11.29 10.27  9.41  8.74  8.25  7.99  8.10  0.00
  15   0.00  0.00  7.82  8.03  8.45  8.94  9.23  8.95  8.47  8.00  7.61  7.34  7.20  0.00  0.00
  16   0.00  0.00  7.44  7.32  7.40  7.49  7.45  7.23  6.96  6.76  6.62  6.55  6.54  0.00  0.00
  17   0.00  0.00  0.00  6.66  6.61  6.45  6.12  5.80  5.63  5.67  5.82  5.93  6.11  0.00  0.00
  18   0.00  0.00  0.00  6.29  6.16  5.80  4.98  4.40  4.29  4.66  5.25  5.49  0.00  0.00  0.00
  19   0.00  0.00  0.00  0.00  0.00  0.00  3.77  2.67  2.61  3.58  0.00  0.00  0.00  0.00  0.00
  20   0.00  0.00  0.00  0.00  0.00  0.00  0.00  0.00  0.00  0.00  0.00  0.00  0.00  0.00  0.00
1
                            STRESS PERIOD NO.      3, LENGTH =   21915.00    
                            -----------------------------------------------

                              NUMBER OF TIME STEPS =    60

                               MULTIPLIER FOR DELT =     1.000

                            INITIAL TIME STEP SIZE =   365.2500    

 WEL PACKAGE STRESS PERIOD INFORMATION [BEFORE APPLICATION OF TABFILES]

 WELL NO.  LAYER   ROW   COL   STRESS RATE         
 --------------------------------------------------
      1      1      1      8   2200.0000    
      2      1      2      5   2200.0000    
      3      1      2      8   2200.0000    
      4      1      2     12   2200.0000    
      5      1      3      4   2200.0000    
      6      1      4     12   2200.0000    
      7      1      5      3   2200.0000    
      8      1      5     13   2200.0000    
      9      1      6     14   2200.0000    
     10      1      7      2   2200.0000    
     11      1     14      2   2200.0000    
     12      1     14     14   2200.0000    
     13      1     16      3   2200.0000    
     14      1     16     13   2200.0000    
     15      1     17     13   2200.0000    
     16      1     18      4   2200.0000    
     17      1     18     12   2200.0000    
     18      1     19      7   2200.0000    

18 WELLS
 
 SOLVING FOR HEAD 

     9 ITERATIONS FOR TIME STEP   1 IN STRESS PERIOD    3

 MAXIMUM HEAD CHANGE FOR EACH ITERATION:

    HEAD CHANGE   HEAD CHANGE   HEAD CHANGE   HEAD CHANGE   HEAD CHANGE
  LAYER,ROW,COL LAYER,ROW,COL LAYER,ROW,COL LAYER,ROW,COL LAYER,ROW,COL
 ----------------------------------------------------------------------
      23.08         1.935        0.5809        0.4487E-01   -0.2275E-01
  (  4, 12,  7) (  4, 11,  8) (  4, 11,  8) (  4, 12,  8) (  4,  8, 10)
    -0.5160E-02   -0.1073E-02    0.1140E-03   -0.5550E-04
  (  4,  9,  9) (  3,  9,  8) (  3,  8, 10) (  4,  8, 10)



Solver Convergence Information:
                              HClose:  5.5500383E-5
                              RClose:  0.0456971
                           L2-RClose:  0.1311193
                         Rel-Vol-Err:  5.7121320E-11
 

 OUTPUT CONTROL FOR STRESS PERIOD      3   TIME STEP     1
    SAVE BUDGET
    SAVE HEAD FOR ALL LAYERS
 UBUDSV SAVING "         STORAGE" ON UNIT 34 AT TIME STEP 1, STRESS PERIOD 3
 UBUDSV SAVING "   CONSTANT HEAD" ON UNIT 34 AT TIME STEP 1, STRESS PERIOD 3
 UBUDSV SAVING "FLOW RIGHT FACE " ON UNIT 34 AT TIME STEP 1, STRESS PERIOD 3
 UBUDSV SAVING "FLOW FRONT FACE " ON UNIT 34 AT TIME STEP 1, STRESS PERIOD 3
 UBUDSV SAVING "FLOW LOWER FACE " ON UNIT 34 AT TIME STEP 1, STRESS PERIOD 3
 UBUDSV SAVING "           WELLS" ON UNIT 34 AT TIME STEP 1, STRESS PERIOD 3

 HEAD WILL BE SAVED ON UNIT   35 AT END OF TIME STEP     1 IN STRESS PERIOD      3
 
 SOLVING FOR HEAD 
     8 ITERATIONS FOR TIME STEP   2 IN STRESS PERIOD    3

 MAXIMUM HEAD CHANGE FOR EACH ITERATION:

    HEAD CHANGE   HEAD CHANGE   HEAD CHANGE   HEAD CHANGE   HEAD CHANGE
  LAYER,ROW,COL LAYER,ROW,COL LAYER,ROW,COL LAYER,ROW,COL LAYER,ROW,COL
 ----------------------------------------------------------------------
      5.164        0.5496        0.1533        0.1589E-01   -0.7333E-02
  (  1,  9, 10) (  3,  9,  9) (  4,  9, 10) (  4,  9, 11) (  4,  8, 10)
     0.1498E-02    0.3803E-03    0.5497E-04
  (  4,  8,  9) (  3,  8, 10) (  4,  9,  9)



Solver Convergence Information:
                              HClose:  5.4968445E-5
                              RClose:  0.0452232
                           L2-RClose:  0.1492922
                         Rel-Vol-Err:  6.3098003E-11
 

 OUTPUT CONTROL FOR STRESS PERIOD      3   TIME STEP     2
    SAVE BUDGET
    SAVE HEAD FOR ALL LAYERS
 UBUDSV SAVING "         STORAGE" ON UNIT 34 AT TIME STEP 2, STRESS PERIOD 3
 UBUDSV SAVING "   CONSTANT HEAD" ON UNIT 34 AT TIME STEP 2, STRESS PERIOD 3
 UBUDSV SAVING "FLOW RIGHT FACE " ON UNIT 34 AT TIME STEP 2, STRESS PERIOD 3
 UBUDSV SAVING "FLOW FRONT FACE " ON UNIT 34 AT TIME STEP 2, STRESS PERIOD 3
 UBUDSV SAVING "FLOW LOWER FACE " ON UNIT 34 AT TIME STEP 2, STRESS PERIOD 3
 UBUDSV SAVING "           WELLS" ON UNIT 34 AT TIME STEP 2, STRESS PERIOD 3

 HEAD WILL BE SAVED ON UNIT   35 AT END OF TIME STEP     2 IN STRESS PERIOD      3
 
 SOLVING FOR HEAD 
     8 ITERATIONS FOR TIME STEP   3 IN STRESS PERIOD    3

 MAXIMUM HEAD CHANGE FOR EACH ITERATION:

    HEAD CHANGE   HEAD CHANGE   HEAD CHANGE   HEAD CHANGE   HEAD CHANGE
  LAYER,ROW,COL LAYER,ROW,COL LAYER,ROW,COL LAYER,ROW,COL LAYER,ROW,COL
 ----------------------------------------------------------------------
      2.983        0.4004        0.1349        0.1315E-01   -0.4187E-02
  (  1,  9, 10) (  3,  9,  9) (  4,  9, 10) (  4,  9, 11) (  4,  8, 10)
     0.7901E-03    0.2368E-03   -0.4562E-04
  (  4,  8,  9) (  3,  8, 10) (  4, 17, 13)



Solver Convergence Information:
                              HClose:  4.5616323E-5
                              RClose:  0.0207576
                           L2-RClose:  0.0961089
                         Rel-Vol-Err:  2.5947015E-11
 

 OUTPUT CONTROL FOR STRESS PERIOD      3   TIME STEP     3
    SAVE BUDGET
    SAVE HEAD FOR ALL LAYERS
 UBUDSV SAVING "         STORAGE" ON UNIT 34 AT TIME STEP 3, STRESS PERIOD 3
 UBUDSV SAVING "   CONSTANT HEAD" ON UNIT 34 AT TIME STEP 3, STRESS PERIOD 3
 UBUDSV SAVING "FLOW RIGHT FACE " ON UNIT 34 AT TIME STEP 3, STRESS PERIOD 3
 UBUDSV SAVING "FLOW FRONT FACE " ON UNIT 34 AT TIME STEP 3, STRESS PERIOD 3
 UBUDSV SAVING "FLOW LOWER FACE " ON UNIT 34 AT TIME STEP 3, STRESS PERIOD 3
 UBUDSV SAVING "           WELLS" ON UNIT 34 AT TIME STEP 3, STRESS PERIOD 3

 HEAD WILL BE SAVED ON UNIT   35 AT END OF TIME STEP     3 IN STRESS PERIOD      3
 
 SOLVING FOR HEAD 
     8 ITERATIONS FOR TIME STEP   4 IN STRESS PERIOD    3

 MAXIMUM HEAD CHANGE FOR EACH ITERATION:

    HEAD CHANGE   HEAD CHANGE   HEAD CHANGE   HEAD CHANGE   HEAD CHANGE
  LAYER,ROW,COL LAYER,ROW,COL LAYER,ROW,COL LAYER,ROW,COL LAYER,ROW,COL
 ----------------------------------------------------------------------
      1.834        0.3083        0.1199        0.1131E-01   -0.2952E-02
  (  1,  9, 10) (  3,  9,  9) (  4,  9, 10) (  4, 10, 10) (  4,  8,  4)
    -0.4901E-03    0.1566E-03   -0.4095E-04
  (  4, 14, 14) (  4,  8, 10) (  4, 18, 12)



Solver Convergence Information:
                              HClose:  4.0946393E-5
                              RClose:  0.0131039
                           L2-RClose:  0.0716492
                         Rel-Vol-Err:  1.6379863E-11
 

 OUTPUT CONTROL FOR STRESS PERIOD      3   TIME STEP     4
    SAVE BUDGET
    SAVE HEAD FOR ALL LAYERS
 UBUDSV SAVING "         STORAGE" ON UNIT 34 AT TIME STEP 4, STRESS PERIOD 3
 UBUDSV SAVING "   CONSTANT HEAD" ON UNIT 34 AT TIME STEP 4, STRESS PERIOD 3
 UBUDSV SAVING "FLOW RIGHT FACE " ON UNIT 34 AT TIME STEP 4, STRESS PERIOD 3
 UBUDSV SAVING "FLOW FRONT FACE " ON UNIT 34 AT TIME STEP 4, STRESS PERIOD 3
 UBUDSV SAVING "FLOW LOWER FACE " ON UNIT 34 AT TIME STEP 4, STRESS PERIOD 3
 UBUDSV SAVING "           WELLS" ON UNIT 34 AT TIME STEP 4, STRESS PERIOD 3

 HEAD WILL BE SAVED ON UNIT   35 AT END OF TIME STEP     4 IN STRESS PERIOD      3
 
 SOLVING FOR HEAD 
     8 ITERATIONS FOR TIME STEP   5 IN STRESS PERIOD    3

 MAXIMUM HEAD CHANGE FOR EACH ITERATION:

    HEAD CHANGE   HEAD CHANGE   HEAD CHANGE   HEAD CHANGE   HEAD CHANGE
  LAYER,ROW,COL LAYER,ROW,COL LAYER,ROW,COL LAYER,ROW,COL LAYER,ROW,COL
 ----------------------------------------------------------------------
      1.206        0.2469        0.1072        0.9999E-02   -0.2689E-02
  (  1,  9, 10) (  3,  9,  9) (  4,  9, 10) (  4, 10, 10) (  4,  7,  4)
    -0.4197E-03   -0.1320E-03   -0.3659E-04
  (  4, 18, 12) (  4, 16, 13) (  4, 18, 12)



Solver Convergence Information:
                              HClose:  3.6587630E-5
                              RClose:  0.0117647
                           L2-RClose:  0.0577568
                         Rel-Vol-Err:  1.4705815E-11
 

 OUTPUT CONTROL FOR STRESS PERIOD      3   TIME STEP     5
    SAVE BUDGET
    SAVE HEAD FOR ALL LAYERS
 UBUDSV SAVING "         STORAGE" ON UNIT 34 AT TIME STEP 5, STRESS PERIOD 3
 UBUDSV SAVING "   CONSTANT HEAD" ON UNIT 34 AT TIME STEP 5, STRESS PERIOD 3
 UBUDSV SAVING "FLOW RIGHT FACE " ON UNIT 34 AT TIME STEP 5, STRESS PERIOD 3
 UBUDSV SAVING "FLOW FRONT FACE " ON UNIT 34 AT TIME STEP 5, STRESS PERIOD 3
 UBUDSV SAVING "FLOW LOWER FACE " ON UNIT 34 AT TIME STEP 5, STRESS PERIOD 3
 UBUDSV SAVING "           WELLS" ON UNIT 34 AT TIME STEP 5, STRESS PERIOD 3

 HEAD WILL BE SAVED ON UNIT   35 AT END OF TIME STEP     5 IN STRESS PERIOD      3
 
 SOLVING FOR HEAD 
     8 ITERATIONS FOR TIME STEP   6 IN STRESS PERIOD    3

 MAXIMUM HEAD CHANGE FOR EACH ITERATION:

    HEAD CHANGE   HEAD CHANGE   HEAD CHANGE   HEAD CHANGE   HEAD CHANGE
  LAYER,ROW,COL LAYER,ROW,COL LAYER,ROW,COL LAYER,ROW,COL LAYER,ROW,COL
 ----------------------------------------------------------------------
     0.8456        0.2037        0.9626E-01    0.8890E-02   -0.2478E-02
  (  1,  9, 10) (  3,  9,  9) (  4,  9, 10) (  4, 10, 10) (  4,  7,  4)
    -0.3805E-03   -0.1138E-03   -0.3239E-04
  (  4, 18, 12) (  4, 16, 13) (  4, 18, 12)



Solver Convergence Information:
                              HClose:  3.2386343E-5
                              RClose:  0.0108839
                           L2-RClose:  0.0484731
                         Rel-Vol-Err:  1.3604863E-11
 

 OUTPUT CONTROL FOR STRESS PERIOD      3   TIME STEP     6
    SAVE BUDGET
    SAVE HEAD FOR ALL LAYERS
 UBUDSV SAVING "         STORAGE" ON UNIT 34 AT TIME STEP 6, STRESS PERIOD 3
 UBUDSV SAVING "   CONSTANT HEAD" ON UNIT 34 AT TIME STEP 6, STRESS PERIOD 3
 UBUDSV SAVING "FLOW RIGHT FACE " ON UNIT 34 AT TIME STEP 6, STRESS PERIOD 3
 UBUDSV SAVING "FLOW FRONT FACE " ON UNIT 34 AT TIME STEP 6, STRESS PERIOD 3
 UBUDSV SAVING "FLOW LOWER FACE " ON UNIT 34 AT TIME STEP 6, STRESS PERIOD 3
 UBUDSV SAVING "           WELLS" ON UNIT 34 AT TIME STEP 6, STRESS PERIOD 3

 HEAD WILL BE SAVED ON UNIT   35 AT END OF TIME STEP     6 IN STRESS PERIOD      3
 
 SOLVING FOR HEAD 
     7 ITERATIONS FOR TIME STEP   7 IN STRESS PERIOD    3

 MAXIMUM HEAD CHANGE FOR EACH ITERATION:

    HEAD CHANGE   HEAD CHANGE   HEAD CHANGE   HEAD CHANGE   HEAD CHANGE
  LAYER,ROW,COL LAYER,ROW,COL LAYER,ROW,COL LAYER,ROW,COL LAYER,ROW,COL
 ----------------------------------------------------------------------
     0.6272        0.1718        0.8772E-01    0.7938E-02   -0.2280E-02
  (  1,  9, 10) (  3,  9,  9) (  4, 10,  9) (  4, 10, 10) (  4,  7,  4)
    -0.3426E-03   -0.9938E-04
  (  4, 18, 12) (  4, 17, 12)



Solver Convergence Information:
                              HClose:  9.9384158E-5
                              RClose:  0.0241656
                           L2-RClose:  0.1716964
                         Rel-Vol-Err:  5.6068439E-11
 

 OUTPUT CONTROL FOR STRESS PERIOD      3   TIME STEP     7
    SAVE BUDGET
    SAVE HEAD FOR ALL LAYERS
 UBUDSV SAVING "         STORAGE" ON UNIT 34 AT TIME STEP 7, STRESS PERIOD 3
 UBUDSV SAVING "   CONSTANT HEAD" ON UNIT 34 AT TIME STEP 7, STRESS PERIOD 3
 UBUDSV SAVING "FLOW RIGHT FACE " ON UNIT 34 AT TIME STEP 7, STRESS PERIOD 3
 UBUDSV SAVING "FLOW FRONT FACE " ON UNIT 34 AT TIME STEP 7, STRESS PERIOD 3
 UBUDSV SAVING "FLOW LOWER FACE " ON UNIT 34 AT TIME STEP 7, STRESS PERIOD 3
 UBUDSV SAVING "           WELLS" ON UNIT 34 AT TIME STEP 7, STRESS PERIOD 3

 HEAD WILL BE SAVED ON UNIT   35 AT END OF TIME STEP     7 IN STRESS PERIOD      3
 
 SOLVING FOR HEAD 
     7 ITERATIONS FOR TIME STEP   8 IN STRESS PERIOD    3

 MAXIMUM HEAD CHANGE FOR EACH ITERATION:

    HEAD CHANGE   HEAD CHANGE   HEAD CHANGE   HEAD CHANGE   HEAD CHANGE
  LAYER,ROW,COL LAYER,ROW,COL LAYER,ROW,COL LAYER,ROW,COL LAYER,ROW,COL
 ----------------------------------------------------------------------
     0.4874        0.1474        0.8090E-01    0.7115E-02   -0.2094E-02
  (  1,  9, 10) (  3,  9,  9) (  4, 10,  9) (  4, 10, 10) (  4,  7,  4)
    -0.3062E-03   -0.8864E-04
  (  4, 18, 12) (  3,  1,  9)



Solver Convergence Information:
                              HClose:  8.8636306E-5
                              RClose:  0.0211769
                           L2-RClose:  0.1518776
                         Rel-Vol-Err:  5.3967697E-11
 

 OUTPUT CONTROL FOR STRESS PERIOD      3   TIME STEP     8
    SAVE BUDGET
    SAVE HEAD FOR ALL LAYERS
 UBUDSV SAVING "         STORAGE" ON UNIT 34 AT TIME STEP 8, STRESS PERIOD 3
 UBUDSV SAVING "   CONSTANT HEAD" ON UNIT 34 AT TIME STEP 8, STRESS PERIOD 3
 UBUDSV SAVING "FLOW RIGHT FACE " ON UNIT 34 AT TIME STEP 8, STRESS PERIOD 3
 UBUDSV SAVING "FLOW FRONT FACE " ON UNIT 34 AT TIME STEP 8, STRESS PERIOD 3
 UBUDSV SAVING "FLOW LOWER FACE " ON UNIT 34 AT TIME STEP 8, STRESS PERIOD 3
 UBUDSV SAVING "           WELLS" ON UNIT 34 AT TIME STEP 8, STRESS PERIOD 3

 HEAD WILL BE SAVED ON UNIT   35 AT END OF TIME STEP     8 IN STRESS PERIOD      3
 
 SOLVING FOR HEAD 
     7 ITERATIONS FOR TIME STEP   9 IN STRESS PERIOD    3

 MAXIMUM HEAD CHANGE FOR EACH ITERATION:

    HEAD CHANGE   HEAD CHANGE   HEAD CHANGE   HEAD CHANGE   HEAD CHANGE
  LAYER,ROW,COL LAYER,ROW,COL LAYER,ROW,COL LAYER,ROW,COL LAYER,ROW,COL
 ----------------------------------------------------------------------
     0.3931        0.1298        0.7450E-01    0.6399E-02   -0.1922E-02
  (  1,  9, 10) (  3, 10,  9) (  4, 10,  9) (  4, 10, 10) (  4,  7,  4)
    -0.2863E-03   -0.8329E-04
  (  4,  1, 10) (  3,  1,  9)



Solver Convergence Information:
                              HClose:  8.3292206E-5
                              RClose:  0.0183810
                           L2-RClose:  0.1350101
                         Rel-Vol-Err:  5.1945933E-11
 

 OUTPUT CONTROL FOR STRESS PERIOD      3   TIME STEP     9
    SAVE BUDGET
    SAVE HEAD FOR ALL LAYERS
 UBUDSV SAVING "         STORAGE" ON UNIT 34 AT TIME STEP 9, STRESS PERIOD 3
 UBUDSV SAVING "   CONSTANT HEAD" ON UNIT 34 AT TIME STEP 9, STRESS PERIOD 3
 UBUDSV SAVING "FLOW RIGHT FACE " ON UNIT 34 AT TIME STEP 9, STRESS PERIOD 3
 UBUDSV SAVING "FLOW FRONT FACE " ON UNIT 34 AT TIME STEP 9, STRESS PERIOD 3
 UBUDSV SAVING "FLOW LOWER FACE " ON UNIT 34 AT TIME STEP 9, STRESS PERIOD 3
 UBUDSV SAVING "           WELLS" ON UNIT 34 AT TIME STEP 9, STRESS PERIOD 3

 HEAD WILL BE SAVED ON UNIT   35 AT END OF TIME STEP     9 IN STRESS PERIOD      3
 
 SOLVING FOR HEAD 
     7 ITERATIONS FOR TIME STEP  10 IN STRESS PERIOD    3

 MAXIMUM HEAD CHANGE FOR EACH ITERATION:

    HEAD CHANGE   HEAD CHANGE   HEAD CHANGE   HEAD CHANGE   HEAD CHANGE
  LAYER,ROW,COL LAYER,ROW,COL LAYER,ROW,COL LAYER,ROW,COL LAYER,ROW,COL
 ----------------------------------------------------------------------
     0.3262        0.1155        0.6856E-01    0.5772E-02   -0.1763E-02
  (  1,  9, 10) (  3, 10,  9) (  4, 10,  9) (  4, 10, 10) (  4,  7,  4)
    -0.2743E-03   -0.7864E-04
  (  4,  1, 10) (  3,  1,  9)



Solver Convergence Information:
                              HClose:  7.8641534E-5
                              RClose:  0.0157805
                           L2-RClose:  0.1206032
                         Rel-Vol-Err:  1.9725620E-11
 

 OUTPUT CONTROL FOR STRESS PERIOD      3   TIME STEP    10
    SAVE BUDGET
    SAVE HEAD FOR ALL LAYERS
 UBUDSV SAVING "         STORAGE" ON UNIT 34 AT TIME STEP 10, STRESS PERIOD 3
 UBUDSV SAVING "   CONSTANT HEAD" ON UNIT 34 AT TIME STEP 10, STRESS PERIOD 3
 UBUDSV SAVING "FLOW RIGHT FACE " ON UNIT 34 AT TIME STEP 10, STRESS PERIOD 3
 UBUDSV SAVING "FLOW FRONT FACE " ON UNIT 34 AT TIME STEP 10, STRESS PERIOD 3
 UBUDSV SAVING "FLOW LOWER FACE " ON UNIT 34 AT TIME STEP 10, STRESS PERIOD 3
 UBUDSV SAVING "           WELLS" ON UNIT 34 AT TIME STEP 10, STRESS PERIOD 3

 HEAD WILL BE SAVED ON UNIT   35 AT END OF TIME STEP    10 IN STRESS PERIOD      3
 
 SOLVING FOR HEAD 
     7 ITERATIONS FOR TIME STEP  11 IN STRESS PERIOD    3

 MAXIMUM HEAD CHANGE FOR EACH ITERATION:

    HEAD CHANGE   HEAD CHANGE   HEAD CHANGE   HEAD CHANGE   HEAD CHANGE
  LAYER,ROW,COL LAYER,ROW,COL LAYER,ROW,COL LAYER,ROW,COL LAYER,ROW,COL
 ----------------------------------------------------------------------
     0.2771        0.1033        0.6311E-01    0.5221E-02   -0.1616E-02
  (  1, 10,  9) (  3, 10,  9) (  4, 10,  9) (  4, 10, 10) (  4,  7,  4)
    -0.2630E-03   -0.7449E-04
  (  4,  1, 10) (  3,  1,  9)



Solver Convergence Information:
                              HClose:  7.4489631E-5
                              RClose:  0.0133721
                           L2-RClose:  0.1083033
                         Rel-Vol-Err:  1.6715135E-11
 

 OUTPUT CONTROL FOR STRESS PERIOD      3   TIME STEP    11
    SAVE BUDGET
    SAVE HEAD FOR ALL LAYERS
 UBUDSV SAVING "         STORAGE" ON UNIT 34 AT TIME STEP 11, STRESS PERIOD 3
 UBUDSV SAVING "   CONSTANT HEAD" ON UNIT 34 AT TIME STEP 11, STRESS PERIOD 3
 UBUDSV SAVING "FLOW RIGHT FACE " ON UNIT 34 AT TIME STEP 11, STRESS PERIOD 3
 UBUDSV SAVING "FLOW FRONT FACE " ON UNIT 34 AT TIME STEP 11, STRESS PERIOD 3
 UBUDSV SAVING "FLOW LOWER FACE " ON UNIT 34 AT TIME STEP 11, STRESS PERIOD 3
 UBUDSV SAVING "           WELLS" ON UNIT 34 AT TIME STEP 11, STRESS PERIOD 3

 HEAD WILL BE SAVED ON UNIT   35 AT END OF TIME STEP    11 IN STRESS PERIOD      3
 
 SOLVING FOR HEAD 
     7 ITERATIONS FOR TIME STEP  12 IN STRESS PERIOD    3

 MAXIMUM HEAD CHANGE FOR EACH ITERATION:

    HEAD CHANGE   HEAD CHANGE   HEAD CHANGE   HEAD CHANGE   HEAD CHANGE
  LAYER,ROW,COL LAYER,ROW,COL LAYER,ROW,COL LAYER,ROW,COL LAYER,ROW,COL
 ----------------------------------------------------------------------
     0.2478        0.9284E-01    0.5814E-01    0.4760E-02   -0.1480E-02
  (  1, 10,  9) (  3, 10,  9) (  4, 10,  9) (  4, 11, 10) (  4,  7,  4)
    -0.2520E-03   -0.7071E-04
  (  4,  1, 10) (  3,  1,  9)



Solver Convergence Information:
                              HClose:  7.0707186E-5
                              RClose:  0.0111496
                           L2-RClose:  0.0978423
                         Rel-Vol-Err:  1.3936985E-11
 

 OUTPUT CONTROL FOR STRESS PERIOD      3   TIME STEP    12
    SAVE BUDGET
    SAVE HEAD FOR ALL LAYERS
 UBUDSV SAVING "         STORAGE" ON UNIT 34 AT TIME STEP 12, STRESS PERIOD 3
 UBUDSV SAVING "   CONSTANT HEAD" ON UNIT 34 AT TIME STEP 12, STRESS PERIOD 3
 UBUDSV SAVING "FLOW RIGHT FACE " ON UNIT 34 AT TIME STEP 12, STRESS PERIOD 3
 UBUDSV SAVING "FLOW FRONT FACE " ON UNIT 34 AT TIME STEP 12, STRESS PERIOD 3
 UBUDSV SAVING "FLOW LOWER FACE " ON UNIT 34 AT TIME STEP 12, STRESS PERIOD 3
 UBUDSV SAVING "           WELLS" ON UNIT 34 AT TIME STEP 12, STRESS PERIOD 3

 HEAD WILL BE SAVED ON UNIT   35 AT END OF TIME STEP    12 IN STRESS PERIOD      3
 
 SOLVING FOR HEAD 
     7 ITERATIONS FOR TIME STEP  13 IN STRESS PERIOD    3

 MAXIMUM HEAD CHANGE FOR EACH ITERATION:

    HEAD CHANGE   HEAD CHANGE   HEAD CHANGE   HEAD CHANGE   HEAD CHANGE
  LAYER,ROW,COL LAYER,ROW,COL LAYER,ROW,COL LAYER,ROW,COL LAYER,ROW,COL
 ----------------------------------------------------------------------
     0.2224        0.8375E-01    0.5361E-01    0.4356E-02   -0.1356E-02
  (  1, 10,  9) (  3, 10,  9) (  4, 10,  9) (  4, 11, 10) (  4,  7,  4)
    -0.2415E-03   -0.6721E-04
  (  4,  1, 10) (  3,  1,  9)



Solver Convergence Information:
                              HClose:  6.7208372E-5
                              RClose:  0.0092679
                           L2-RClose:  0.0890043
                         Rel-Vol-Err:  0.0
 

 OUTPUT CONTROL FOR STRESS PERIOD      3   TIME STEP    13
    SAVE BUDGET
    SAVE HEAD FOR ALL LAYERS
 UBUDSV SAVING "         STORAGE" ON UNIT 34 AT TIME STEP 13, STRESS PERIOD 3
 UBUDSV SAVING "   CONSTANT HEAD" ON UNIT 34 AT TIME STEP 13, STRESS PERIOD 3
 UBUDSV SAVING "FLOW RIGHT FACE " ON UNIT 34 AT TIME STEP 13, STRESS PERIOD 3
 UBUDSV SAVING "FLOW FRONT FACE " ON UNIT 34 AT TIME STEP 13, STRESS PERIOD 3
 UBUDSV SAVING "FLOW LOWER FACE " ON UNIT 34 AT TIME STEP 13, STRESS PERIOD 3
 UBUDSV SAVING "           WELLS" ON UNIT 34 AT TIME STEP 13, STRESS PERIOD 3

 HEAD WILL BE SAVED ON UNIT   35 AT END OF TIME STEP    13 IN STRESS PERIOD      3
 
 SOLVING FOR HEAD 
     7 ITERATIONS FOR TIME STEP  14 IN STRESS PERIOD    3

 MAXIMUM HEAD CHANGE FOR EACH ITERATION:

    HEAD CHANGE   HEAD CHANGE   HEAD CHANGE   HEAD CHANGE   HEAD CHANGE
  LAYER,ROW,COL LAYER,ROW,COL LAYER,ROW,COL LAYER,ROW,COL LAYER,ROW,COL
 ----------------------------------------------------------------------
     0.2002        0.7583E-01    0.4950E-01   -0.4016E-02   -0.1242E-02
  (  1, 10,  9) (  3, 10,  9) (  4, 10,  9) (  4,  4,  6) (  4,  7,  4)
    -0.2312E-03   -0.6394E-04
  (  4,  1, 10) (  3,  1,  9)



Solver Convergence Information:
                              HClose:  6.3936040E-5
                              RClose:  0.0088837
                           L2-RClose:  0.0816063
                         Rel-Vol-Err:  0.0
 

 OUTPUT CONTROL FOR STRESS PERIOD      3   TIME STEP    14
    SAVE BUDGET
    SAVE HEAD FOR ALL LAYERS
 UBUDSV SAVING "         STORAGE" ON UNIT 34 AT TIME STEP 14, STRESS PERIOD 3
 UBUDSV SAVING "   CONSTANT HEAD" ON UNIT 34 AT TIME STEP 14, STRESS PERIOD 3
 UBUDSV SAVING "FLOW RIGHT FACE " ON UNIT 34 AT TIME STEP 14, STRESS PERIOD 3
 UBUDSV SAVING "FLOW FRONT FACE " ON UNIT 34 AT TIME STEP 14, STRESS PERIOD 3
 UBUDSV SAVING "FLOW LOWER FACE " ON UNIT 34 AT TIME STEP 14, STRESS PERIOD 3
 UBUDSV SAVING "           WELLS" ON UNIT 34 AT TIME STEP 14, STRESS PERIOD 3

 HEAD WILL BE SAVED ON UNIT   35 AT END OF TIME STEP    14 IN STRESS PERIOD      3
 
 SOLVING FOR HEAD 
     7 ITERATIONS FOR TIME STEP  15 IN STRESS PERIOD    3

 MAXIMUM HEAD CHANGE FOR EACH ITERATION:

    HEAD CHANGE   HEAD CHANGE   HEAD CHANGE   HEAD CHANGE   HEAD CHANGE
  LAYER,ROW,COL LAYER,ROW,COL LAYER,ROW,COL LAYER,ROW,COL LAYER,ROW,COL
 ----------------------------------------------------------------------
     0.1808        0.6889E-01    0.4578E-01   -0.3743E-02   -0.1138E-02
  (  1, 10,  9) (  3, 10,  9) (  4, 10,  9) (  4,  4,  6) (  4,  7,  4)
    -0.2213E-03   -0.6085E-04
  (  4,  1, 10) (  3,  1,  9)



Solver Convergence Information:
                              HClose:  6.0851839E-5
                              RClose:  0.0084969
                           L2-RClose:  0.0754847
                         Rel-Vol-Err:  0.0
 

 OUTPUT CONTROL FOR STRESS PERIOD      3   TIME STEP    15
    SAVE BUDGET
    SAVE HEAD FOR ALL LAYERS
 UBUDSV SAVING "         STORAGE" ON UNIT 34 AT TIME STEP 15, STRESS PERIOD 3
 UBUDSV SAVING "   CONSTANT HEAD" ON UNIT 34 AT TIME STEP 15, STRESS PERIOD 3
 UBUDSV SAVING "FLOW RIGHT FACE " ON UNIT 34 AT TIME STEP 15, STRESS PERIOD 3
 UBUDSV SAVING "FLOW FRONT FACE " ON UNIT 34 AT TIME STEP 15, STRESS PERIOD 3
 UBUDSV SAVING "FLOW LOWER FACE " ON UNIT 34 AT TIME STEP 15, STRESS PERIOD 3
 UBUDSV SAVING "           WELLS" ON UNIT 34 AT TIME STEP 15, STRESS PERIOD 3

 HEAD WILL BE SAVED ON UNIT   35 AT END OF TIME STEP    15 IN STRESS PERIOD      3
 
 SOLVING FOR HEAD 
     7 ITERATIONS FOR TIME STEP  16 IN STRESS PERIOD    3

 MAXIMUM HEAD CHANGE FOR EACH ITERATION:

    HEAD CHANGE   HEAD CHANGE   HEAD CHANGE   HEAD CHANGE   HEAD CHANGE
  LAYER,ROW,COL LAYER,ROW,COL LAYER,ROW,COL LAYER,ROW,COL LAYER,ROW,COL
 ----------------------------------------------------------------------
     0.1638        0.6279E-01    0.4241E-01   -0.3489E-02   -0.1042E-02
  (  1, 10,  9) (  3, 10,  9) (  4, 10,  9) (  4,  4,  6) (  4,  7,  4)
    -0.2117E-03   -0.5793E-04
  (  4,  1, 10) (  3,  1,  9)



Solver Convergence Information:
                              HClose:  5.7929685E-5
                              RClose:  0.0081123
                           L2-RClose:  0.0704874
                         Rel-Vol-Err:  0.0
 

 OUTPUT CONTROL FOR STRESS PERIOD      3   TIME STEP    16
    SAVE BUDGET
    SAVE HEAD FOR ALL LAYERS
 UBUDSV SAVING "         STORAGE" ON UNIT 34 AT TIME STEP 16, STRESS PERIOD 3
 UBUDSV SAVING "   CONSTANT HEAD" ON UNIT 34 AT TIME STEP 16, STRESS PERIOD 3
 UBUDSV SAVING "FLOW RIGHT FACE " ON UNIT 34 AT TIME STEP 16, STRESS PERIOD 3
 UBUDSV SAVING "FLOW FRONT FACE " ON UNIT 34 AT TIME STEP 16, STRESS PERIOD 3
 UBUDSV SAVING "FLOW LOWER FACE " ON UNIT 34 AT TIME STEP 16, STRESS PERIOD 3
 UBUDSV SAVING "           WELLS" ON UNIT 34 AT TIME STEP 16, STRESS PERIOD 3

 HEAD WILL BE SAVED ON UNIT   35 AT END OF TIME STEP    16 IN STRESS PERIOD      3
 
 SOLVING FOR HEAD 
     7 ITERATIONS FOR TIME STEP  17 IN STRESS PERIOD    3

 MAXIMUM HEAD CHANGE FOR EACH ITERATION:

    HEAD CHANGE   HEAD CHANGE   HEAD CHANGE   HEAD CHANGE   HEAD CHANGE
  LAYER,ROW,COL LAYER,ROW,COL LAYER,ROW,COL LAYER,ROW,COL LAYER,ROW,COL
 ----------------------------------------------------------------------
     0.1488        0.5741E-01    0.3935E-01   -0.3255E-02    0.9785E-03
  (  1, 10,  9) (  3, 10,  9) (  4, 10,  9) (  4,  4,  6) (  4, 12, 15)
    -0.2024E-03   -0.5515E-04
  (  4,  1, 10) (  3,  1,  9)



Solver Convergence Information:
                              HClose:  5.5151460E-5
                              RClose:  0.0077334
                           L2-RClose:  0.0664691
                         Rel-Vol-Err:  0.0
 

 OUTPUT CONTROL FOR STRESS PERIOD      3   TIME STEP    17
    SAVE BUDGET
    SAVE HEAD FOR ALL LAYERS
 UBUDSV SAVING "         STORAGE" ON UNIT 34 AT TIME STEP 17, STRESS PERIOD 3
 UBUDSV SAVING "   CONSTANT HEAD" ON UNIT 34 AT TIME STEP 17, STRESS PERIOD 3
 UBUDSV SAVING "FLOW RIGHT FACE " ON UNIT 34 AT TIME STEP 17, STRESS PERIOD 3
 UBUDSV SAVING "FLOW FRONT FACE " ON UNIT 34 AT TIME STEP 17, STRESS PERIOD 3
 UBUDSV SAVING "FLOW LOWER FACE " ON UNIT 34 AT TIME STEP 17, STRESS PERIOD 3
 UBUDSV SAVING "           WELLS" ON UNIT 34 AT TIME STEP 17, STRESS PERIOD 3

 HEAD WILL BE SAVED ON UNIT   35 AT END OF TIME STEP    17 IN STRESS PERIOD      3
 
 SOLVING FOR HEAD 
     7 ITERATIONS FOR TIME STEP  18 IN STRESS PERIOD    3

 MAXIMUM HEAD CHANGE FOR EACH ITERATION:

    HEAD CHANGE   HEAD CHANGE   HEAD CHANGE   HEAD CHANGE   HEAD CHANGE
  LAYER,ROW,COL LAYER,ROW,COL LAYER,ROW,COL LAYER,ROW,COL LAYER,ROW,COL
 ----------------------------------------------------------------------
     0.1356        0.5263E-01    0.3659E-01   -0.3038E-02    0.9955E-03
  (  1, 10,  9) (  3, 10,  9) (  4, 10,  9) (  4,  4,  6) (  4, 12, 15)
    -0.1934E-03   -0.5250E-04
  (  4,  1, 10) (  3,  1,  9)



Solver Convergence Information:
                              HClose:  5.2504217E-5
                              RClose:  0.0075940
                           L2-RClose:  0.0632899
                         Rel-Vol-Err:  0.0
 

 OUTPUT CONTROL FOR STRESS PERIOD      3   TIME STEP    18
    SAVE BUDGET
    SAVE HEAD FOR ALL LAYERS
 UBUDSV SAVING "         STORAGE" ON UNIT 34 AT TIME STEP 18, STRESS PERIOD 3
 UBUDSV SAVING "   CONSTANT HEAD" ON UNIT 34 AT TIME STEP 18, STRESS PERIOD 3
 UBUDSV SAVING "FLOW RIGHT FACE " ON UNIT 34 AT TIME STEP 18, STRESS PERIOD 3
 UBUDSV SAVING "FLOW FRONT FACE " ON UNIT 34 AT TIME STEP 18, STRESS PERIOD 3
 UBUDSV SAVING "FLOW LOWER FACE " ON UNIT 34 AT TIME STEP 18, STRESS PERIOD 3
 UBUDSV SAVING "           WELLS" ON UNIT 34 AT TIME STEP 18, STRESS PERIOD 3

 HEAD WILL BE SAVED ON UNIT   35 AT END OF TIME STEP    18 IN STRESS PERIOD      3
 
 SOLVING FOR HEAD 
     7 ITERATIONS FOR TIME STEP  19 IN STRESS PERIOD    3

 MAXIMUM HEAD CHANGE FOR EACH ITERATION:

    HEAD CHANGE   HEAD CHANGE   HEAD CHANGE   HEAD CHANGE   HEAD CHANGE
  LAYER,ROW,COL LAYER,ROW,COL LAYER,ROW,COL LAYER,ROW,COL LAYER,ROW,COL
 ----------------------------------------------------------------------
     0.1240        0.4839E-01    0.3408E-01   -0.2837E-02    0.1007E-02
  (  1, 10,  9) (  3, 10,  9) (  4, 10,  9) (  4,  4,  6) (  4, 12, 15)
     0.1940E-03    0.5045E-04
  (  4, 12, 15) (  3, 14, 14)



Solver Convergence Information:
                              HClose:  5.0445836E-5
                              RClose:  0.0084271
                           L2-RClose:  0.0608161
                         Rel-Vol-Err:  0.0
 

 OUTPUT CONTROL FOR STRESS PERIOD      3   TIME STEP    19
    SAVE BUDGET
    SAVE HEAD FOR ALL LAYERS
 UBUDSV SAVING "         STORAGE" ON UNIT 34 AT TIME STEP 19, STRESS PERIOD 3
 UBUDSV SAVING "   CONSTANT HEAD" ON UNIT 34 AT TIME STEP 19, STRESS PERIOD 3
 UBUDSV SAVING "FLOW RIGHT FACE " ON UNIT 34 AT TIME STEP 19, STRESS PERIOD 3
 UBUDSV SAVING "FLOW FRONT FACE " ON UNIT 34 AT TIME STEP 19, STRESS PERIOD 3
 UBUDSV SAVING "FLOW LOWER FACE " ON UNIT 34 AT TIME STEP 19, STRESS PERIOD 3
 UBUDSV SAVING "           WELLS" ON UNIT 34 AT TIME STEP 19, STRESS PERIOD 3

 HEAD WILL BE SAVED ON UNIT   35 AT END OF TIME STEP    19 IN STRESS PERIOD      3
 
 SOLVING FOR HEAD 
     7 ITERATIONS FOR TIME STEP  20 IN STRESS PERIOD    3

 MAXIMUM HEAD CHANGE FOR EACH ITERATION:

    HEAD CHANGE   HEAD CHANGE   HEAD CHANGE   HEAD CHANGE   HEAD CHANGE
  LAYER,ROW,COL LAYER,ROW,COL LAYER,ROW,COL LAYER,ROW,COL LAYER,ROW,COL
 ----------------------------------------------------------------------
     0.1136        0.4461E-01    0.3180E-01   -0.2660E-02    0.1015E-02
  (  1, 10,  9) (  3, 10,  9) (  4, 10,  9) (  4,  3,  7) (  4, 12, 15)
     0.2013E-03    0.5255E-04
  (  4, 12, 15) (  3, 14, 14)



Solver Convergence Information:
                              HClose:  5.2545193E-5
                              RClose:  0.0091421
                           L2-RClose:  0.0589229
                         Rel-Vol-Err:  0.0
 

 OUTPUT CONTROL FOR STRESS PERIOD      3   TIME STEP    20
    SAVE BUDGET
    SAVE HEAD FOR ALL LAYERS
 UBUDSV SAVING "         STORAGE" ON UNIT 34 AT TIME STEP 20, STRESS PERIOD 3
 UBUDSV SAVING "   CONSTANT HEAD" ON UNIT 34 AT TIME STEP 20, STRESS PERIOD 3
 UBUDSV SAVING "FLOW RIGHT FACE " ON UNIT 34 AT TIME STEP 20, STRESS PERIOD 3
 UBUDSV SAVING "FLOW FRONT FACE " ON UNIT 34 AT TIME STEP 20, STRESS PERIOD 3
 UBUDSV SAVING "FLOW LOWER FACE " ON UNIT 34 AT TIME STEP 20, STRESS PERIOD 3
 UBUDSV SAVING "           WELLS" ON UNIT 34 AT TIME STEP 20, STRESS PERIOD 3

 HEAD WILL BE SAVED ON UNIT   35 AT END OF TIME STEP    20 IN STRESS PERIOD      3
 
 SOLVING FOR HEAD 
     7 ITERATIONS FOR TIME STEP  21 IN STRESS PERIOD    3

 MAXIMUM HEAD CHANGE FOR EACH ITERATION:

    HEAD CHANGE   HEAD CHANGE   HEAD CHANGE   HEAD CHANGE   HEAD CHANGE
  LAYER,ROW,COL LAYER,ROW,COL LAYER,ROW,COL LAYER,ROW,COL LAYER,ROW,COL
 ----------------------------------------------------------------------
     0.1044        0.4123E-01    0.2974E-01   -0.2498E-02    0.1018E-02
  (  1, 10,  9) (  3, 10,  9) (  4, 10,  9) (  4,  3,  7) (  4, 12, 15)
     0.2073E-03    0.5426E-04
  (  4, 12, 15) (  3, 14, 14)



Solver Convergence Information:
                              HClose:  5.4264574E-5
                              RClose:  0.0097521
                           L2-RClose:  0.0574967
                         Rel-Vol-Err:  0.0
 

 OUTPUT CONTROL FOR STRESS PERIOD      3   TIME STEP    21
    SAVE BUDGET
    SAVE HEAD FOR ALL LAYERS
 UBUDSV SAVING "         STORAGE" ON UNIT 34 AT TIME STEP 21, STRESS PERIOD 3
 UBUDSV SAVING "   CONSTANT HEAD" ON UNIT 34 AT TIME STEP 21, STRESS PERIOD 3
 UBUDSV SAVING "FLOW RIGHT FACE " ON UNIT 34 AT TIME STEP 21, STRESS PERIOD 3
 UBUDSV SAVING "FLOW FRONT FACE " ON UNIT 34 AT TIME STEP 21, STRESS PERIOD 3
 UBUDSV SAVING "FLOW LOWER FACE " ON UNIT 34 AT TIME STEP 21, STRESS PERIOD 3
 UBUDSV SAVING "           WELLS" ON UNIT 34 AT TIME STEP 21, STRESS PERIOD 3

 HEAD WILL BE SAVED ON UNIT   35 AT END OF TIME STEP    21 IN STRESS PERIOD      3
 
 SOLVING FOR HEAD 
     7 ITERATIONS FOR TIME STEP  22 IN STRESS PERIOD    3

 MAXIMUM HEAD CHANGE FOR EACH ITERATION:

    HEAD CHANGE   HEAD CHANGE   HEAD CHANGE   HEAD CHANGE   HEAD CHANGE
  LAYER,ROW,COL LAYER,ROW,COL LAYER,ROW,COL LAYER,ROW,COL LAYER,ROW,COL
 ----------------------------------------------------------------------
     0.9617E-01    0.3820E-01    0.2787E-01   -0.2347E-02    0.1019E-02
  (  1, 10,  9) (  3, 10,  9) (  4, 10,  9) (  4,  3,  7) (  4, 12, 15)
     0.2122E-03    0.5565E-04
  (  4, 12, 15) (  3, 14, 14)



Solver Convergence Information:
                              HClose:  5.5649811E-5
                              RClose:  0.0102689
                           L2-RClose:  0.0564371
                         Rel-Vol-Err:  1.2836085E-11
 

 OUTPUT CONTROL FOR STRESS PERIOD      3   TIME STEP    22
    SAVE BUDGET
    SAVE HEAD FOR ALL LAYERS
 UBUDSV SAVING "         STORAGE" ON UNIT 34 AT TIME STEP 22, STRESS PERIOD 3
 UBUDSV SAVING "   CONSTANT HEAD" ON UNIT 34 AT TIME STEP 22, STRESS PERIOD 3
 UBUDSV SAVING "FLOW RIGHT FACE " ON UNIT 34 AT TIME STEP 22, STRESS PERIOD 3
 UBUDSV SAVING "FLOW FRONT FACE " ON UNIT 34 AT TIME STEP 22, STRESS PERIOD 3
 UBUDSV SAVING "FLOW LOWER FACE " ON UNIT 34 AT TIME STEP 22, STRESS PERIOD 3
 UBUDSV SAVING "           WELLS" ON UNIT 34 AT TIME STEP 22, STRESS PERIOD 3

 HEAD WILL BE SAVED ON UNIT   35 AT END OF TIME STEP    22 IN STRESS PERIOD      3
 
 SOLVING FOR HEAD 
     7 ITERATIONS FOR TIME STEP  23 IN STRESS PERIOD    3

 MAXIMUM HEAD CHANGE FOR EACH ITERATION:

    HEAD CHANGE   HEAD CHANGE   HEAD CHANGE   HEAD CHANGE   HEAD CHANGE
  LAYER,ROW,COL LAYER,ROW,COL LAYER,ROW,COL LAYER,ROW,COL LAYER,ROW,COL
 ----------------------------------------------------------------------
     0.8882E-01    0.3548E-01    0.2617E-01   -0.2206E-02    0.1016E-02
  (  1, 10,  9) (  3, 10,  9) (  4, 10,  9) (  4,  3,  7) (  4, 12, 15)
     0.2161E-03    0.5674E-04
  (  4, 12, 15) (  3, 14, 14)



Solver Convergence Information:
                              HClose:  5.6741534E-5
                              RClose:  0.0107031
                           L2-RClose:  0.0556580
                         Rel-Vol-Err:  1.3378846E-11
 

 OUTPUT CONTROL FOR STRESS PERIOD      3   TIME STEP    23
    SAVE BUDGET
    SAVE HEAD FOR ALL LAYERS
 UBUDSV SAVING "         STORAGE" ON UNIT 34 AT TIME STEP 23, STRESS PERIOD 3
 UBUDSV SAVING "   CONSTANT HEAD" ON UNIT 34 AT TIME STEP 23, STRESS PERIOD 3
 UBUDSV SAVING "FLOW RIGHT FACE " ON UNIT 34 AT TIME STEP 23, STRESS PERIOD 3
 UBUDSV SAVING "FLOW FRONT FACE " ON UNIT 34 AT TIME STEP 23, STRESS PERIOD 3
 UBUDSV SAVING "FLOW LOWER FACE " ON UNIT 34 AT TIME STEP 23, STRESS PERIOD 3
 UBUDSV SAVING "           WELLS" ON UNIT 34 AT TIME STEP 23, STRESS PERIOD 3

 HEAD WILL BE SAVED ON UNIT   35 AT END OF TIME STEP    23 IN STRESS PERIOD      3
 
 SOLVING FOR HEAD 
     7 ITERATIONS FOR TIME STEP  24 IN STRESS PERIOD    3

 MAXIMUM HEAD CHANGE FOR EACH ITERATION:

    HEAD CHANGE   HEAD CHANGE   HEAD CHANGE   HEAD CHANGE   HEAD CHANGE
  LAYER,ROW,COL LAYER,ROW,COL LAYER,ROW,COL LAYER,ROW,COL LAYER,ROW,COL
 ----------------------------------------------------------------------
     0.8223E-01    0.3303E-01    0.2462E-01   -0.2074E-02    0.1011E-02
  (  1, 10,  9) (  3, 10,  9) (  4, 10,  9) (  4,  3,  7) (  4, 12, 15)
     0.2247E-03    0.5758E-04
  (  4, 14, 14) (  3, 14, 14)



Solver Convergence Information:
                              HClose:  5.7575744E-5
                              RClose:  0.0110641
                           L2-RClose:  0.0550877
                         Rel-Vol-Err:  1.3830170E-11
 

 OUTPUT CONTROL FOR STRESS PERIOD      3   TIME STEP    24
    SAVE BUDGET
    SAVE HEAD FOR ALL LAYERS
 UBUDSV SAVING "         STORAGE" ON UNIT 34 AT TIME STEP 24, STRESS PERIOD 3
 UBUDSV SAVING "   CONSTANT HEAD" ON UNIT 34 AT TIME STEP 24, STRESS PERIOD 3
 UBUDSV SAVING "FLOW RIGHT FACE " ON UNIT 34 AT TIME STEP 24, STRESS PERIOD 3
 UBUDSV SAVING "FLOW FRONT FACE " ON UNIT 34 AT TIME STEP 24, STRESS PERIOD 3
 UBUDSV SAVING "FLOW LOWER FACE " ON UNIT 34 AT TIME STEP 24, STRESS PERIOD 3
 UBUDSV SAVING "           WELLS" ON UNIT 34 AT TIME STEP 24, STRESS PERIOD 3

 HEAD WILL BE SAVED ON UNIT   35 AT END OF TIME STEP    24 IN STRESS PERIOD      3
 
 SOLVING FOR HEAD 
     7 ITERATIONS FOR TIME STEP  25 IN STRESS PERIOD    3

 MAXIMUM HEAD CHANGE FOR EACH ITERATION:

    HEAD CHANGE   HEAD CHANGE   HEAD CHANGE   HEAD CHANGE   HEAD CHANGE
  LAYER,ROW,COL LAYER,ROW,COL LAYER,ROW,COL LAYER,ROW,COL LAYER,ROW,COL
 ----------------------------------------------------------------------
     0.7659E-01    0.3082E-01    0.2321E-01   -0.1952E-02    0.1005E-02
  (  1, 11,  9) (  3, 10,  9) (  4, 10,  9) (  4,  3,  7) (  4, 12, 15)
     0.2321E-03    0.5818E-04
  (  4, 14, 14) (  3, 14, 14)



Solver Convergence Information:
                              HClose:  5.8184330E-5
                              RClose:  0.0113605
                           L2-RClose:  0.0546677
                         Rel-Vol-Err:  1.4200579E-11
 

 OUTPUT CONTROL FOR STRESS PERIOD      3   TIME STEP    25
    SAVE BUDGET
    SAVE HEAD FOR ALL LAYERS
 UBUDSV SAVING "         STORAGE" ON UNIT 34 AT TIME STEP 25, STRESS PERIOD 3
 UBUDSV SAVING "   CONSTANT HEAD" ON UNIT 34 AT TIME STEP 25, STRESS PERIOD 3
 UBUDSV SAVING "FLOW RIGHT FACE " ON UNIT 34 AT TIME STEP 25, STRESS PERIOD 3
 UBUDSV SAVING "FLOW FRONT FACE " ON UNIT 34 AT TIME STEP 25, STRESS PERIOD 3
 UBUDSV SAVING "FLOW LOWER FACE " ON UNIT 34 AT TIME STEP 25, STRESS PERIOD 3
 UBUDSV SAVING "           WELLS" ON UNIT 34 AT TIME STEP 25, STRESS PERIOD 3

 HEAD WILL BE SAVED ON UNIT   35 AT END OF TIME STEP    25 IN STRESS PERIOD      3
 
 SOLVING FOR HEAD 
     7 ITERATIONS FOR TIME STEP  26 IN STRESS PERIOD    3

 MAXIMUM HEAD CHANGE FOR EACH ITERATION:

    HEAD CHANGE   HEAD CHANGE   HEAD CHANGE   HEAD CHANGE   HEAD CHANGE
  LAYER,ROW,COL LAYER,ROW,COL LAYER,ROW,COL LAYER,ROW,COL LAYER,ROW,COL
 ----------------------------------------------------------------------
     0.7152E-01    0.2882E-01    0.2193E-01    0.1916E-02    0.9962E-03
  (  1, 11,  9) (  3, 10,  9) (  4, 10,  9) (  4, 12, 15) (  4, 12, 15)
     0.2384E-03    0.5860E-04
  (  4, 14, 14) (  3, 14, 14)



Solver Convergence Information:
                              HClose:  5.8595540E-5
                              RClose:  0.0115996
                           L2-RClose:  0.0543517
                         Rel-Vol-Err:  1.4499454E-11
 

 OUTPUT CONTROL FOR STRESS PERIOD      3   TIME STEP    26
    SAVE BUDGET
    SAVE HEAD FOR ALL LAYERS
 UBUDSV SAVING "         STORAGE" ON UNIT 34 AT TIME STEP 26, STRESS PERIOD 3
 UBUDSV SAVING "   CONSTANT HEAD" ON UNIT 34 AT TIME STEP 26, STRESS PERIOD 3
 UBUDSV SAVING "FLOW RIGHT FACE " ON UNIT 34 AT TIME STEP 26, STRESS PERIOD 3
 UBUDSV SAVING "FLOW FRONT FACE " ON UNIT 34 AT TIME STEP 26, STRESS PERIOD 3
 UBUDSV SAVING "FLOW LOWER FACE " ON UNIT 34 AT TIME STEP 26, STRESS PERIOD 3
 UBUDSV SAVING "           WELLS" ON UNIT 34 AT TIME STEP 26, STRESS PERIOD 3

 HEAD WILL BE SAVED ON UNIT   35 AT END OF TIME STEP    26 IN STRESS PERIOD      3
 
 SOLVING FOR HEAD 
     7 ITERATIONS FOR TIME STEP  27 IN STRESS PERIOD    3

 MAXIMUM HEAD CHANGE FOR EACH ITERATION:

    HEAD CHANGE   HEAD CHANGE   HEAD CHANGE   HEAD CHANGE   HEAD CHANGE
  LAYER,ROW,COL LAYER,ROW,COL LAYER,ROW,COL LAYER,ROW,COL LAYER,ROW,COL
 ----------------------------------------------------------------------
     0.6694E-01    0.2710E-01    0.2084E-01    0.1940E-02    0.1000E-02
  (  1, 11,  9) (  3, 11,  9) (  4, 10, 10) (  4, 12, 15) (  4, 14, 14)
     0.2437E-03    0.5883E-04
  (  4, 14, 14) (  3, 14, 14)



Solver Convergence Information:
                              HClose:  5.8834395E-5
                              RClose:  0.0117881
                           L2-RClose:  0.0541033
                         Rel-Vol-Err:  1.4735158E-11
 

 OUTPUT CONTROL FOR STRESS PERIOD      3   TIME STEP    27
    SAVE BUDGET
    SAVE HEAD FOR ALL LAYERS
 UBUDSV SAVING "         STORAGE" ON UNIT 34 AT TIME STEP 27, STRESS PERIOD 3
 UBUDSV SAVING "   CONSTANT HEAD" ON UNIT 34 AT TIME STEP 27, STRESS PERIOD 3
 UBUDSV SAVING "FLOW RIGHT FACE " ON UNIT 34 AT TIME STEP 27, STRESS PERIOD 3
 UBUDSV SAVING "FLOW FRONT FACE " ON UNIT 34 AT TIME STEP 27, STRESS PERIOD 3
 UBUDSV SAVING "FLOW LOWER FACE " ON UNIT 34 AT TIME STEP 27, STRESS PERIOD 3
 UBUDSV SAVING "           WELLS" ON UNIT 34 AT TIME STEP 27, STRESS PERIOD 3

 HEAD WILL BE SAVED ON UNIT   35 AT END OF TIME STEP    27 IN STRESS PERIOD      3
 
 SOLVING FOR HEAD 
     7 ITERATIONS FOR TIME STEP  28 IN STRESS PERIOD    3

 MAXIMUM HEAD CHANGE FOR EACH ITERATION:

    HEAD CHANGE   HEAD CHANGE   HEAD CHANGE   HEAD CHANGE   HEAD CHANGE
  LAYER,ROW,COL LAYER,ROW,COL LAYER,ROW,COL LAYER,ROW,COL LAYER,ROW,COL
 ----------------------------------------------------------------------
     0.6279E-01    0.2556E-01    0.1985E-01    0.1958E-02    0.1018E-02
  (  1, 11,  9) (  3, 11,  9) (  4, 10, 10) (  4, 12, 15) (  4, 14, 14)
     0.2481E-03    0.5892E-04
  (  4, 14, 14) (  3, 14, 14)



Solver Convergence Information:
                              HClose:  5.8923058E-5
                              RClose:  0.0119321
                           L2-RClose:  0.0538950
                         Rel-Vol-Err:  1.4915138E-11
 

 OUTPUT CONTROL FOR STRESS PERIOD      3   TIME STEP    28
    SAVE BUDGET
    SAVE HEAD FOR ALL LAYERS
 UBUDSV SAVING "         STORAGE" ON UNIT 34 AT TIME STEP 28, STRESS PERIOD 3
 UBUDSV SAVING "   CONSTANT HEAD" ON UNIT 34 AT TIME STEP 28, STRESS PERIOD 3
 UBUDSV SAVING "FLOW RIGHT FACE " ON UNIT 34 AT TIME STEP 28, STRESS PERIOD 3
 UBUDSV SAVING "FLOW FRONT FACE " ON UNIT 34 AT TIME STEP 28, STRESS PERIOD 3
 UBUDSV SAVING "FLOW LOWER FACE " ON UNIT 34 AT TIME STEP 28, STRESS PERIOD 3
 UBUDSV SAVING "           WELLS" ON UNIT 34 AT TIME STEP 28, STRESS PERIOD 3

 HEAD WILL BE SAVED ON UNIT   35 AT END OF TIME STEP    28 IN STRESS PERIOD      3
 
 SOLVING FOR HEAD 
     7 ITERATIONS FOR TIME STEP  29 IN STRESS PERIOD    3

 MAXIMUM HEAD CHANGE FOR EACH ITERATION:

    HEAD CHANGE   HEAD CHANGE   HEAD CHANGE   HEAD CHANGE   HEAD CHANGE
  LAYER,ROW,COL LAYER,ROW,COL LAYER,ROW,COL LAYER,ROW,COL LAYER,ROW,COL
 ----------------------------------------------------------------------
     0.5903E-01    0.2416E-01    0.1895E-01    0.1970E-02    0.1032E-02
  (  1, 11,  9) (  3, 11,  9) (  4, 10, 10) (  4, 12, 15) (  4, 14, 14)
     0.2516E-03    0.5888E-04
  (  4, 14, 14) (  3, 14, 14)



Solver Convergence Information:
                              HClose:  5.8881162E-5
                              RClose:  0.0120368
                           L2-RClose:  0.0537059
                         Rel-Vol-Err:  1.5046033E-11
 

 OUTPUT CONTROL FOR STRESS PERIOD      3   TIME STEP    29
    SAVE BUDGET
    SAVE HEAD FOR ALL LAYERS
 UBUDSV SAVING "         STORAGE" ON UNIT 34 AT TIME STEP 29, STRESS PERIOD 3
 UBUDSV SAVING "   CONSTANT HEAD" ON UNIT 34 AT TIME STEP 29, STRESS PERIOD 3
 UBUDSV SAVING "FLOW RIGHT FACE " ON UNIT 34 AT TIME STEP 29, STRESS PERIOD 3
 UBUDSV SAVING "FLOW FRONT FACE " ON UNIT 34 AT TIME STEP 29, STRESS PERIOD 3
 UBUDSV SAVING "FLOW LOWER FACE " ON UNIT 34 AT TIME STEP 29, STRESS PERIOD 3
 UBUDSV SAVING "           WELLS" ON UNIT 34 AT TIME STEP 29, STRESS PERIOD 3

 HEAD WILL BE SAVED ON UNIT   35 AT END OF TIME STEP    29 IN STRESS PERIOD      3
 
 SOLVING FOR HEAD 
     7 ITERATIONS FOR TIME STEP  30 IN STRESS PERIOD    3

 MAXIMUM HEAD CHANGE FOR EACH ITERATION:

    HEAD CHANGE   HEAD CHANGE   HEAD CHANGE   HEAD CHANGE   HEAD CHANGE
  LAYER,ROW,COL LAYER,ROW,COL LAYER,ROW,COL LAYER,ROW,COL LAYER,ROW,COL
 ----------------------------------------------------------------------
    -0.5572E-01    0.2288E-01    0.1813E-01    0.1978E-02    0.1043E-02
  (  1,  1,  6) (  3, 11,  9) (  4, 11, 10) (  4, 12, 15) (  4, 14, 14)
     0.2544E-03    0.5873E-04
  (  4, 14, 14) (  3, 14, 14)



Solver Convergence Information:
                              HClose:  5.8726101E-5
                              RClose:  0.0121070
                           L2-RClose:  0.0535207
                         Rel-Vol-Err:  1.5133756E-11
 

 OUTPUT CONTROL FOR STRESS PERIOD      3   TIME STEP    30
    SAVE BUDGET
    SAVE HEAD FOR ALL LAYERS
 UBUDSV SAVING "         STORAGE" ON UNIT 34 AT TIME STEP 30, STRESS PERIOD 3
 UBUDSV SAVING "   CONSTANT HEAD" ON UNIT 34 AT TIME STEP 30, STRESS PERIOD 3
 UBUDSV SAVING "FLOW RIGHT FACE " ON UNIT 34 AT TIME STEP 30, STRESS PERIOD 3
 UBUDSV SAVING "FLOW FRONT FACE " ON UNIT 34 AT TIME STEP 30, STRESS PERIOD 3
 UBUDSV SAVING "FLOW LOWER FACE " ON UNIT 34 AT TIME STEP 30, STRESS PERIOD 3
 UBUDSV SAVING "           WELLS" ON UNIT 34 AT TIME STEP 30, STRESS PERIOD 3

 HEAD WILL BE SAVED ON UNIT   35 AT END OF TIME STEP    30 IN STRESS PERIOD      3
 
 SOLVING FOR HEAD 
     7 ITERATIONS FOR TIME STEP  31 IN STRESS PERIOD    3

 MAXIMUM HEAD CHANGE FOR EACH ITERATION:

    HEAD CHANGE   HEAD CHANGE   HEAD CHANGE   HEAD CHANGE   HEAD CHANGE
  LAYER,ROW,COL LAYER,ROW,COL LAYER,ROW,COL LAYER,ROW,COL LAYER,ROW,COL
 ----------------------------------------------------------------------
    -0.5305E-01    0.2172E-01    0.1743E-01    0.1982E-02    0.1051E-02
  (  1,  1,  6) (  3, 11,  9) (  4, 11, 10) (  4, 12, 15) (  4, 14, 14)
     0.2565E-03    0.5847E-04
  (  4, 14, 14) (  3, 14, 14)



Solver Convergence Information:
                              HClose:  5.8473281E-5
                              RClose:  0.0121469
                           L2-RClose:  0.0533287
                         Rel-Vol-Err:  1.5183574E-11
 

 OUTPUT CONTROL FOR STRESS PERIOD      3   TIME STEP    31
    SAVE BUDGET
    SAVE HEAD FOR ALL LAYERS
 UBUDSV SAVING "         STORAGE" ON UNIT 34 AT TIME STEP 31, STRESS PERIOD 3
 UBUDSV SAVING "   CONSTANT HEAD" ON UNIT 34 AT TIME STEP 31, STRESS PERIOD 3
 UBUDSV SAVING "FLOW RIGHT FACE " ON UNIT 34 AT TIME STEP 31, STRESS PERIOD 3
 UBUDSV SAVING "FLOW FRONT FACE " ON UNIT 34 AT TIME STEP 31, STRESS PERIOD 3
 UBUDSV SAVING "FLOW LOWER FACE " ON UNIT 34 AT TIME STEP 31, STRESS PERIOD 3
 UBUDSV SAVING "           WELLS" ON UNIT 34 AT TIME STEP 31, STRESS PERIOD 3

 HEAD WILL BE SAVED ON UNIT   35 AT END OF TIME STEP    31 IN STRESS PERIOD      3
 
 SOLVING FOR HEAD 
     7 ITERATIONS FOR TIME STEP  32 IN STRESS PERIOD    3

 MAXIMUM HEAD CHANGE FOR EACH ITERATION:

    HEAD CHANGE   HEAD CHANGE   HEAD CHANGE   HEAD CHANGE   HEAD CHANGE
  LAYER,ROW,COL LAYER,ROW,COL LAYER,ROW,COL LAYER,ROW,COL LAYER,ROW,COL
 ----------------------------------------------------------------------
    -0.5049E-01    0.2065E-01    0.1679E-01    0.1981E-02    0.1057E-02
  (  1,  1,  6) (  3, 11,  9) (  4, 11, 10) (  4, 12, 15) (  4, 14, 14)
     0.2580E-03    0.5814E-04
  (  4, 14, 14) (  3, 14, 14)



Solver Convergence Information:
                              HClose:  5.8136344E-5
                              RClose:  0.0121601
                           L2-RClose:  0.0531223
                         Rel-Vol-Err:  1.5200179E-11
 

 OUTPUT CONTROL FOR STRESS PERIOD      3   TIME STEP    32
    SAVE BUDGET
    SAVE HEAD FOR ALL LAYERS
 UBUDSV SAVING "         STORAGE" ON UNIT 34 AT TIME STEP 32, STRESS PERIOD 3
 UBUDSV SAVING "   CONSTANT HEAD" ON UNIT 34 AT TIME STEP 32, STRESS PERIOD 3
 UBUDSV SAVING "FLOW RIGHT FACE " ON UNIT 34 AT TIME STEP 32, STRESS PERIOD 3
 UBUDSV SAVING "FLOW FRONT FACE " ON UNIT 34 AT TIME STEP 32, STRESS PERIOD 3
 UBUDSV SAVING "FLOW LOWER FACE " ON UNIT 34 AT TIME STEP 32, STRESS PERIOD 3
 UBUDSV SAVING "           WELLS" ON UNIT 34 AT TIME STEP 32, STRESS PERIOD 3

 HEAD WILL BE SAVED ON UNIT   35 AT END OF TIME STEP    32 IN STRESS PERIOD      3
 
 SOLVING FOR HEAD 
     7 ITERATIONS FOR TIME STEP  33 IN STRESS PERIOD    3

 MAXIMUM HEAD CHANGE FOR EACH ITERATION:

    HEAD CHANGE   HEAD CHANGE   HEAD CHANGE   HEAD CHANGE   HEAD CHANGE
  LAYER,ROW,COL LAYER,ROW,COL LAYER,ROW,COL LAYER,ROW,COL LAYER,ROW,COL
 ----------------------------------------------------------------------
    -0.4803E-01    0.1968E-01    0.1619E-01    0.1978E-02    0.1061E-02
  (  1,  1,  6) (  3, 11,  9) (  4, 11, 10) (  4, 12, 15) (  4, 14, 14)
     0.2591E-03    0.5773E-04
  (  4, 14, 14) (  3, 14, 14)



Solver Convergence Information:
                              HClose:  5.7727373E-5
                              RClose:  0.0121502
                           L2-RClose:  0.0528965
                         Rel-Vol-Err:  1.5187750E-11
 

 OUTPUT CONTROL FOR STRESS PERIOD      3   TIME STEP    33
    SAVE BUDGET
    SAVE HEAD FOR ALL LAYERS
 UBUDSV SAVING "         STORAGE" ON UNIT 34 AT TIME STEP 33, STRESS PERIOD 3
 UBUDSV SAVING "   CONSTANT HEAD" ON UNIT 34 AT TIME STEP 33, STRESS PERIOD 3
 UBUDSV SAVING "FLOW RIGHT FACE " ON UNIT 34 AT TIME STEP 33, STRESS PERIOD 3
 UBUDSV SAVING "FLOW FRONT FACE " ON UNIT 34 AT TIME STEP 33, STRESS PERIOD 3
 UBUDSV SAVING "FLOW LOWER FACE " ON UNIT 34 AT TIME STEP 33, STRESS PERIOD 3
 UBUDSV SAVING "           WELLS" ON UNIT 34 AT TIME STEP 33, STRESS PERIOD 3

 HEAD WILL BE SAVED ON UNIT   35 AT END OF TIME STEP    33 IN STRESS PERIOD      3
 
 SOLVING FOR HEAD 
     7 ITERATIONS FOR TIME STEP  34 IN STRESS PERIOD    3

 MAXIMUM HEAD CHANGE FOR EACH ITERATION:

    HEAD CHANGE   HEAD CHANGE   HEAD CHANGE   HEAD CHANGE   HEAD CHANGE
  LAYER,ROW,COL LAYER,ROW,COL LAYER,ROW,COL LAYER,ROW,COL LAYER,ROW,COL
 ----------------------------------------------------------------------
    -0.4567E-01    0.1880E-01    0.1564E-01    0.1972E-02    0.1063E-02
  (  1,  1,  6) (  3, 11, 10) (  4, 11, 10) (  4, 12, 15) (  4, 14, 14)
     0.2596E-03    0.5726E-04
  (  4, 14, 14) (  3, 14, 14)



Solver Convergence Information:
                              HClose:  5.7257063E-5
                              RClose:  0.0121200
                           L2-RClose:  0.0526483
                         Rel-Vol-Err:  1.5150008E-11
 

 OUTPUT CONTROL FOR STRESS PERIOD      3   TIME STEP    34
    SAVE BUDGET
    SAVE HEAD FOR ALL LAYERS
 UBUDSV SAVING "         STORAGE" ON UNIT 34 AT TIME STEP 34, STRESS PERIOD 3
 UBUDSV SAVING "   CONSTANT HEAD" ON UNIT 34 AT TIME STEP 34, STRESS PERIOD 3
 UBUDSV SAVING "FLOW RIGHT FACE " ON UNIT 34 AT TIME STEP 34, STRESS PERIOD 3
 UBUDSV SAVING "FLOW FRONT FACE " ON UNIT 34 AT TIME STEP 34, STRESS PERIOD 3
 UBUDSV SAVING "FLOW LOWER FACE " ON UNIT 34 AT TIME STEP 34, STRESS PERIOD 3
 UBUDSV SAVING "           WELLS" ON UNIT 34 AT TIME STEP 34, STRESS PERIOD 3

 HEAD WILL BE SAVED ON UNIT   35 AT END OF TIME STEP    34 IN STRESS PERIOD      3
 
 SOLVING FOR HEAD 
     7 ITERATIONS FOR TIME STEP  35 IN STRESS PERIOD    3

 MAXIMUM HEAD CHANGE FOR EACH ITERATION:

    HEAD CHANGE   HEAD CHANGE   HEAD CHANGE   HEAD CHANGE   HEAD CHANGE
  LAYER,ROW,COL LAYER,ROW,COL LAYER,ROW,COL LAYER,ROW,COL LAYER,ROW,COL
 ----------------------------------------------------------------------
    -0.4341E-01    0.1807E-01    0.1513E-01    0.1963E-02    0.1064E-02
  (  1,  1,  6) (  3, 11, 10) (  4, 11, 10) (  4, 12, 15) (  4, 14, 14)
     0.2598E-03    0.5673E-04
  (  4, 14, 14) (  3, 14, 14)



Solver Convergence Information:
                              HClose:  5.6734873E-5
                              RClose:  0.0120722
                           L2-RClose:  0.0523764
                         Rel-Vol-Err:  1.5090268E-11
 

 OUTPUT CONTROL FOR STRESS PERIOD      3   TIME STEP    35
    SAVE BUDGET
    SAVE HEAD FOR ALL LAYERS
 UBUDSV SAVING "         STORAGE" ON UNIT 34 AT TIME STEP 35, STRESS PERIOD 3
 UBUDSV SAVING "   CONSTANT HEAD" ON UNIT 34 AT TIME STEP 35, STRESS PERIOD 3
 UBUDSV SAVING "FLOW RIGHT FACE " ON UNIT 34 AT TIME STEP 35, STRESS PERIOD 3
 UBUDSV SAVING "FLOW FRONT FACE " ON UNIT 34 AT TIME STEP 35, STRESS PERIOD 3
 UBUDSV SAVING "FLOW LOWER FACE " ON UNIT 34 AT TIME STEP 35, STRESS PERIOD 3
 UBUDSV SAVING "           WELLS" ON UNIT 34 AT TIME STEP 35, STRESS PERIOD 3

 HEAD WILL BE SAVED ON UNIT   35 AT END OF TIME STEP    35 IN STRESS PERIOD      3
 
 SOLVING FOR HEAD 
     7 ITERATIONS FOR TIME STEP  36 IN STRESS PERIOD    3

 MAXIMUM HEAD CHANGE FOR EACH ITERATION:

    HEAD CHANGE   HEAD CHANGE   HEAD CHANGE   HEAD CHANGE   HEAD CHANGE
  LAYER,ROW,COL LAYER,ROW,COL LAYER,ROW,COL LAYER,ROW,COL LAYER,ROW,COL
 ----------------------------------------------------------------------
     0.4127E-01    0.1741E-01    0.1470E-01    0.1952E-02    0.1062E-02
  (  1,  9, 15) (  3, 11, 10) (  4, 11, 11) (  4, 12, 15) (  4, 14, 14)
     0.2595E-03    0.5617E-04
  (  4, 14, 14) (  3, 14, 14)



Solver Convergence Information:
                              HClose:  5.6169173E-5
                              RClose:  0.0120092
                           L2-RClose:  0.0520802
                         Rel-Vol-Err:  1.5011478E-11
 

 OUTPUT CONTROL FOR STRESS PERIOD      3   TIME STEP    36
    SAVE BUDGET
    SAVE HEAD FOR ALL LAYERS
 UBUDSV SAVING "         STORAGE" ON UNIT 34 AT TIME STEP 36, STRESS PERIOD 3
 UBUDSV SAVING "   CONSTANT HEAD" ON UNIT 34 AT TIME STEP 36, STRESS PERIOD 3
 UBUDSV SAVING "FLOW RIGHT FACE " ON UNIT 34 AT TIME STEP 36, STRESS PERIOD 3
 UBUDSV SAVING "FLOW FRONT FACE " ON UNIT 34 AT TIME STEP 36, STRESS PERIOD 3
 UBUDSV SAVING "FLOW LOWER FACE " ON UNIT 34 AT TIME STEP 36, STRESS PERIOD 3
 UBUDSV SAVING "           WELLS" ON UNIT 34 AT TIME STEP 36, STRESS PERIOD 3

 HEAD WILL BE SAVED ON UNIT   35 AT END OF TIME STEP    36 IN STRESS PERIOD      3
 
 SOLVING FOR HEAD 
     7 ITERATIONS FOR TIME STEP  37 IN STRESS PERIOD    3

 MAXIMUM HEAD CHANGE FOR EACH ITERATION:

    HEAD CHANGE   HEAD CHANGE   HEAD CHANGE   HEAD CHANGE   HEAD CHANGE
  LAYER,ROW,COL LAYER,ROW,COL LAYER,ROW,COL LAYER,ROW,COL LAYER,ROW,COL
 ----------------------------------------------------------------------
     0.4080E-01    0.1679E-01    0.1431E-01    0.1939E-02    0.1060E-02
  (  1,  9, 15) (  3, 11, 10) (  4, 11, 11) (  4, 12, 15) (  4, 14, 14)
     0.2590E-03    0.5576E-04
  (  4, 14, 14) (  3, 16, 13)



Solver Convergence Information:
                              HClose:  5.5757077E-5
                              RClose:  0.0119330
                           L2-RClose:  0.0517601
                         Rel-Vol-Err:  1.4916265E-11
 

 OUTPUT CONTROL FOR STRESS PERIOD      3   TIME STEP    37
    SAVE BUDGET
    SAVE HEAD FOR ALL LAYERS
 UBUDSV SAVING "         STORAGE" ON UNIT 34 AT TIME STEP 37, STRESS PERIOD 3
 UBUDSV SAVING "   CONSTANT HEAD" ON UNIT 34 AT TIME STEP 37, STRESS PERIOD 3
 UBUDSV SAVING "FLOW RIGHT FACE " ON UNIT 34 AT TIME STEP 37, STRESS PERIOD 3
 UBUDSV SAVING "FLOW FRONT FACE " ON UNIT 34 AT TIME STEP 37, STRESS PERIOD 3
 UBUDSV SAVING "FLOW LOWER FACE " ON UNIT 34 AT TIME STEP 37, STRESS PERIOD 3
 UBUDSV SAVING "           WELLS" ON UNIT 34 AT TIME STEP 37, STRESS PERIOD 3

 HEAD WILL BE SAVED ON UNIT   35 AT END OF TIME STEP    37 IN STRESS PERIOD      3
 
 SOLVING FOR HEAD 
     7 ITERATIONS FOR TIME STEP  38 IN STRESS PERIOD    3

 MAXIMUM HEAD CHANGE FOR EACH ITERATION:

    HEAD CHANGE   HEAD CHANGE   HEAD CHANGE   HEAD CHANGE   HEAD CHANGE
  LAYER,ROW,COL LAYER,ROW,COL LAYER,ROW,COL LAYER,ROW,COL LAYER,ROW,COL
 ----------------------------------------------------------------------
     0.4030E-01    0.1634E-01    0.1395E-01    0.1925E-02    0.1056E-02
  (  1,  9, 15) (  3, 11, 14) (  4, 11, 11) (  4, 12, 15) (  4, 14, 14)
     0.2582E-03    0.5576E-04
  (  4, 14, 14) (  3, 16, 13)



Solver Convergence Information:
                              HClose:  5.5758499E-5
                              RClose:  0.0118456
                           L2-RClose:  0.0514170
                         Rel-Vol-Err:  1.4806961E-11
 

 OUTPUT CONTROL FOR STRESS PERIOD      3   TIME STEP    38
    SAVE BUDGET
    SAVE HEAD FOR ALL LAYERS
 UBUDSV SAVING "         STORAGE" ON UNIT 34 AT TIME STEP 38, STRESS PERIOD 3
 UBUDSV SAVING "   CONSTANT HEAD" ON UNIT 34 AT TIME STEP 38, STRESS PERIOD 3
 UBUDSV SAVING "FLOW RIGHT FACE " ON UNIT 34 AT TIME STEP 38, STRESS PERIOD 3
 UBUDSV SAVING "FLOW FRONT FACE " ON UNIT 34 AT TIME STEP 38, STRESS PERIOD 3
 UBUDSV SAVING "FLOW LOWER FACE " ON UNIT 34 AT TIME STEP 38, STRESS PERIOD 3
 UBUDSV SAVING "           WELLS" ON UNIT 34 AT TIME STEP 38, STRESS PERIOD 3

 HEAD WILL BE SAVED ON UNIT   35 AT END OF TIME STEP    38 IN STRESS PERIOD      3
 
 SOLVING FOR HEAD 
     7 ITERATIONS FOR TIME STEP  39 IN STRESS PERIOD    3

 MAXIMUM HEAD CHANGE FOR EACH ITERATION:

    HEAD CHANGE   HEAD CHANGE   HEAD CHANGE   HEAD CHANGE   HEAD CHANGE
  LAYER,ROW,COL LAYER,ROW,COL LAYER,ROW,COL LAYER,ROW,COL LAYER,ROW,COL
 ----------------------------------------------------------------------
     0.3976E-01    0.1615E-01    0.1360E-01    0.1909E-02    0.1052E-02
  (  1,  9, 15) (  3, 11, 14) (  4, 11, 11) (  4, 12, 15) (  4, 14, 14)
     0.2571E-03    0.5569E-04
  (  4, 14, 14) (  3, 16, 13)



Solver Convergence Information:
                              HClose:  5.5688967E-5
                              RClose:  0.0117485
                           L2-RClose:  0.0510523
                         Rel-Vol-Err:  1.4685645E-11
 

 OUTPUT CONTROL FOR STRESS PERIOD      3   TIME STEP    39
    SAVE BUDGET
    SAVE HEAD FOR ALL LAYERS
 UBUDSV SAVING "         STORAGE" ON UNIT 34 AT TIME STEP 39, STRESS PERIOD 3
 UBUDSV SAVING "   CONSTANT HEAD" ON UNIT 34 AT TIME STEP 39, STRESS PERIOD 3
 UBUDSV SAVING "FLOW RIGHT FACE " ON UNIT 34 AT TIME STEP 39, STRESS PERIOD 3
 UBUDSV SAVING "FLOW FRONT FACE " ON UNIT 34 AT TIME STEP 39, STRESS PERIOD 3
 UBUDSV SAVING "FLOW LOWER FACE " ON UNIT 34 AT TIME STEP 39, STRESS PERIOD 3
 UBUDSV SAVING "           WELLS" ON UNIT 34 AT TIME STEP 39, STRESS PERIOD 3

 HEAD WILL BE SAVED ON UNIT   35 AT END OF TIME STEP    39 IN STRESS PERIOD      3
 
 SOLVING FOR HEAD 
     7 ITERATIONS FOR TIME STEP  40 IN STRESS PERIOD    3

 MAXIMUM HEAD CHANGE FOR EACH ITERATION:

    HEAD CHANGE   HEAD CHANGE   HEAD CHANGE   HEAD CHANGE   HEAD CHANGE
  LAYER,ROW,COL LAYER,ROW,COL LAYER,ROW,COL LAYER,ROW,COL LAYER,ROW,COL
 ----------------------------------------------------------------------
     0.3920E-01    0.1595E-01    0.1327E-01    0.1893E-02    0.1046E-02
  (  1,  9, 15) (  3, 11, 14) (  4, 11, 11) (  4, 12, 15) (  4, 14, 14)
     0.2558E-03    0.5556E-04
  (  4, 14, 14) (  3, 16, 13)



Solver Convergence Information:
                              HClose:  5.5556484E-5
                              RClose:  0.0116433
                           L2-RClose:  0.0506675
                         Rel-Vol-Err:  1.4554160E-11
 

 OUTPUT CONTROL FOR STRESS PERIOD      3   TIME STEP    40
    SAVE BUDGET
    SAVE HEAD FOR ALL LAYERS
 UBUDSV SAVING "         STORAGE" ON UNIT 34 AT TIME STEP 40, STRESS PERIOD 3
 UBUDSV SAVING "   CONSTANT HEAD" ON UNIT 34 AT TIME STEP 40, STRESS PERIOD 3
 UBUDSV SAVING "FLOW RIGHT FACE " ON UNIT 34 AT TIME STEP 40, STRESS PERIOD 3
 UBUDSV SAVING "FLOW FRONT FACE " ON UNIT 34 AT TIME STEP 40, STRESS PERIOD 3
 UBUDSV SAVING "FLOW LOWER FACE " ON UNIT 34 AT TIME STEP 40, STRESS PERIOD 3
 UBUDSV SAVING "           WELLS" ON UNIT 34 AT TIME STEP 40, STRESS PERIOD 3

 HEAD WILL BE SAVED ON UNIT   35 AT END OF TIME STEP    40 IN STRESS PERIOD      3
 
 SOLVING FOR HEAD 
     7 ITERATIONS FOR TIME STEP  41 IN STRESS PERIOD    3

 MAXIMUM HEAD CHANGE FOR EACH ITERATION:

    HEAD CHANGE   HEAD CHANGE   HEAD CHANGE   HEAD CHANGE   HEAD CHANGE
  LAYER,ROW,COL LAYER,ROW,COL LAYER,ROW,COL LAYER,ROW,COL LAYER,ROW,COL
 ----------------------------------------------------------------------
     0.3878E-01    0.1574E-01    0.1296E-01    0.1875E-02    0.1040E-02
  (  1, 12, 15) (  3, 11, 14) (  4, 11, 11) (  4, 12, 15) (  4, 14, 14)
     0.2543E-03    0.5537E-04
  (  4, 14, 14) (  3, 16, 13)



Solver Convergence Information:
                              HClose:  5.5368269E-5
                              RClose:  0.0115313
                           L2-RClose:  0.0502644
                         Rel-Vol-Err:  1.4414145E-11
 

 OUTPUT CONTROL FOR STRESS PERIOD      3   TIME STEP    41
    SAVE BUDGET
    SAVE HEAD FOR ALL LAYERS
 UBUDSV SAVING "         STORAGE" ON UNIT 34 AT TIME STEP 41, STRESS PERIOD 3
 UBUDSV SAVING "   CONSTANT HEAD" ON UNIT 34 AT TIME STEP 41, STRESS PERIOD 3
 UBUDSV SAVING "FLOW RIGHT FACE " ON UNIT 34 AT TIME STEP 41, STRESS PERIOD 3
 UBUDSV SAVING "FLOW FRONT FACE " ON UNIT 34 AT TIME STEP 41, STRESS PERIOD 3
 UBUDSV SAVING "FLOW LOWER FACE " ON UNIT 34 AT TIME STEP 41, STRESS PERIOD 3
 UBUDSV SAVING "           WELLS" ON UNIT 34 AT TIME STEP 41, STRESS PERIOD 3

 HEAD WILL BE SAVED ON UNIT   35 AT END OF TIME STEP    41 IN STRESS PERIOD      3
 
 SOLVING FOR HEAD 
     7 ITERATIONS FOR TIME STEP  42 IN STRESS PERIOD    3

 MAXIMUM HEAD CHANGE FOR EACH ITERATION:

    HEAD CHANGE   HEAD CHANGE   HEAD CHANGE   HEAD CHANGE   HEAD CHANGE
  LAYER,ROW,COL LAYER,ROW,COL LAYER,ROW,COL LAYER,ROW,COL LAYER,ROW,COL
 ----------------------------------------------------------------------
     0.3838E-01    0.1552E-01    0.1268E-01    0.1856E-02    0.1033E-02
  (  1, 12, 15) (  3, 11, 14) (  4, 11, 12) (  4, 12, 15) (  4, 14, 14)
     0.2526E-03    0.5513E-04
  (  4, 14, 14) (  3, 16, 13)



Solver Convergence Information:
                              HClose:  5.5130835E-5
                              RClose:  0.0114136
                           L2-RClose:  0.0498446
                         Rel-Vol-Err:  1.4267054E-11
 

 OUTPUT CONTROL FOR STRESS PERIOD      3   TIME STEP    42
    SAVE BUDGET
    SAVE HEAD FOR ALL LAYERS
 UBUDSV SAVING "         STORAGE" ON UNIT 34 AT TIME STEP 42, STRESS PERIOD 3
 UBUDSV SAVING "   CONSTANT HEAD" ON UNIT 34 AT TIME STEP 42, STRESS PERIOD 3
 UBUDSV SAVING "FLOW RIGHT FACE " ON UNIT 34 AT TIME STEP 42, STRESS PERIOD 3
 UBUDSV SAVING "FLOW FRONT FACE " ON UNIT 34 AT TIME STEP 42, STRESS PERIOD 3
 UBUDSV SAVING "FLOW LOWER FACE " ON UNIT 34 AT TIME STEP 42, STRESS PERIOD 3
 UBUDSV SAVING "           WELLS" ON UNIT 34 AT TIME STEP 42, STRESS PERIOD 3

 HEAD WILL BE SAVED ON UNIT   35 AT END OF TIME STEP    42 IN STRESS PERIOD      3
 
 SOLVING FOR HEAD 
     7 ITERATIONS FOR TIME STEP  43 IN STRESS PERIOD    3

 MAXIMUM HEAD CHANGE FOR EACH ITERATION:

    HEAD CHANGE   HEAD CHANGE   HEAD CHANGE   HEAD CHANGE   HEAD CHANGE
  LAYER,ROW,COL LAYER,ROW,COL LAYER,ROW,COL LAYER,ROW,COL LAYER,ROW,COL
 ----------------------------------------------------------------------
     0.3796E-01    0.1530E-01    0.1243E-01    0.1837E-02    0.1025E-02
  (  1, 12, 15) (  3, 11, 14) (  4, 11, 12) (  4, 12, 15) (  4, 14, 14)
     0.2508E-03    0.5485E-04
  (  4, 14, 14) (  3, 16, 13)



Solver Convergence Information:
                              HClose:  5.4850059E-5
                              RClose:  0.0112913
                           L2-RClose:  0.0494101
                         Rel-Vol-Err:  1.4114175E-11
 

 OUTPUT CONTROL FOR STRESS PERIOD      3   TIME STEP    43
    SAVE BUDGET
    SAVE HEAD FOR ALL LAYERS
 UBUDSV SAVING "         STORAGE" ON UNIT 34 AT TIME STEP 43, STRESS PERIOD 3
 UBUDSV SAVING "   CONSTANT HEAD" ON UNIT 34 AT TIME STEP 43, STRESS PERIOD 3
 UBUDSV SAVING "FLOW RIGHT FACE " ON UNIT 34 AT TIME STEP 43, STRESS PERIOD 3
 UBUDSV SAVING "FLOW FRONT FACE " ON UNIT 34 AT TIME STEP 43, STRESS PERIOD 3
 UBUDSV SAVING "FLOW LOWER FACE " ON UNIT 34 AT TIME STEP 43, STRESS PERIOD 3
 UBUDSV SAVING "           WELLS" ON UNIT 34 AT TIME STEP 43, STRESS PERIOD 3

 HEAD WILL BE SAVED ON UNIT   35 AT END OF TIME STEP    43 IN STRESS PERIOD      3
 
 SOLVING FOR HEAD 
     7 ITERATIONS FOR TIME STEP  44 IN STRESS PERIOD    3

 MAXIMUM HEAD CHANGE FOR EACH ITERATION:

    HEAD CHANGE   HEAD CHANGE   HEAD CHANGE   HEAD CHANGE   HEAD CHANGE
  LAYER,ROW,COL LAYER,ROW,COL LAYER,ROW,COL LAYER,ROW,COL LAYER,ROW,COL
 ----------------------------------------------------------------------
     0.3750E-01    0.1508E-01    0.1219E-01    0.1817E-02    0.1017E-02
  (  1, 12, 15) (  3, 11, 14) (  4, 11, 12) (  4, 12, 15) (  4, 14, 14)
     0.2488E-03    0.5453E-04
  (  4, 14, 14) (  3, 16, 13)



Solver Convergence Information:
                              HClose:  5.4531242E-5
                              RClose:  0.0111653
                           L2-RClose:  0.0489626
                         Rel-Vol-Err:  1.3956651E-11
 

 OUTPUT CONTROL FOR STRESS PERIOD      3   TIME STEP    44
    SAVE BUDGET
    SAVE HEAD FOR ALL LAYERS
 UBUDSV SAVING "         STORAGE" ON UNIT 34 AT TIME STEP 44, STRESS PERIOD 3
 UBUDSV SAVING "   CONSTANT HEAD" ON UNIT 34 AT TIME STEP 44, STRESS PERIOD 3
 UBUDSV SAVING "FLOW RIGHT FACE " ON UNIT 34 AT TIME STEP 44, STRESS PERIOD 3
 UBUDSV SAVING "FLOW FRONT FACE " ON UNIT 34 AT TIME STEP 44, STRESS PERIOD 3
 UBUDSV SAVING "FLOW LOWER FACE " ON UNIT 34 AT TIME STEP 44, STRESS PERIOD 3
 UBUDSV SAVING "           WELLS" ON UNIT 34 AT TIME STEP 44, STRESS PERIOD 3

 HEAD WILL BE SAVED ON UNIT   35 AT END OF TIME STEP    44 IN STRESS PERIOD      3
 
 SOLVING FOR HEAD 
     7 ITERATIONS FOR TIME STEP  45 IN STRESS PERIOD    3

 MAXIMUM HEAD CHANGE FOR EACH ITERATION:

    HEAD CHANGE   HEAD CHANGE   HEAD CHANGE   HEAD CHANGE   HEAD CHANGE
  LAYER,ROW,COL LAYER,ROW,COL LAYER,ROW,COL LAYER,ROW,COL LAYER,ROW,COL
 ----------------------------------------------------------------------
     0.3703E-01    0.1486E-01    0.1195E-01    0.1797E-02    0.1008E-02
  (  1, 12, 15) (  3, 11, 14) (  4, 11, 12) (  4, 12, 15) (  4, 14, 14)
     0.2468E-03    0.5418E-04
  (  4, 14, 14) (  3, 16, 13)



Solver Convergence Information:
                              HClose:  5.4179167E-5
                              RClose:  0.0110364
                           L2-RClose:  0.0485038
                         Rel-Vol-Err:  1.3795491E-11
 

 OUTPUT CONTROL FOR STRESS PERIOD      3   TIME STEP    45
    SAVE BUDGET
    SAVE HEAD FOR ALL LAYERS
 UBUDSV SAVING "         STORAGE" ON UNIT 34 AT TIME STEP 45, STRESS PERIOD 3
 UBUDSV SAVING "   CONSTANT HEAD" ON UNIT 34 AT TIME STEP 45, STRESS PERIOD 3
 UBUDSV SAVING "FLOW RIGHT FACE " ON UNIT 34 AT TIME STEP 45, STRESS PERIOD 3
 UBUDSV SAVING "FLOW FRONT FACE " ON UNIT 34 AT TIME STEP 45, STRESS PERIOD 3
 UBUDSV SAVING "FLOW LOWER FACE " ON UNIT 34 AT TIME STEP 45, STRESS PERIOD 3
 UBUDSV SAVING "           WELLS" ON UNIT 34 AT TIME STEP 45, STRESS PERIOD 3

 HEAD WILL BE SAVED ON UNIT   35 AT END OF TIME STEP    45 IN STRESS PERIOD      3
 
 SOLVING FOR HEAD 
     7 ITERATIONS FOR TIME STEP  46 IN STRESS PERIOD    3

 MAXIMUM HEAD CHANGE FOR EACH ITERATION:

    HEAD CHANGE   HEAD CHANGE   HEAD CHANGE   HEAD CHANGE   HEAD CHANGE
  LAYER,ROW,COL LAYER,ROW,COL LAYER,ROW,COL LAYER,ROW,COL LAYER,ROW,COL
 ----------------------------------------------------------------------
     0.3655E-01    0.1463E-01    0.1173E-01    0.1776E-02    0.9993E-03
  (  1, 12, 15) (  3, 11, 14) (  4, 11, 12) (  4, 12, 15) (  4, 14, 14)
     0.2447E-03    0.5380E-04
  (  4, 14, 14) (  3, 16, 13)



Solver Convergence Information:
                              HClose:  5.3798146E-5
                              RClose:  0.0109053
                           L2-RClose:  0.0480355
                         Rel-Vol-Err:  1.3631588E-11
 

 OUTPUT CONTROL FOR STRESS PERIOD      3   TIME STEP    46
    SAVE BUDGET
    SAVE HEAD FOR ALL LAYERS
 UBUDSV SAVING "         STORAGE" ON UNIT 34 AT TIME STEP 46, STRESS PERIOD 3
 UBUDSV SAVING "   CONSTANT HEAD" ON UNIT 34 AT TIME STEP 46, STRESS PERIOD 3
 UBUDSV SAVING "FLOW RIGHT FACE " ON UNIT 34 AT TIME STEP 46, STRESS PERIOD 3
 UBUDSV SAVING "FLOW FRONT FACE " ON UNIT 34 AT TIME STEP 46, STRESS PERIOD 3
 UBUDSV SAVING "FLOW LOWER FACE " ON UNIT 34 AT TIME STEP 46, STRESS PERIOD 3
 UBUDSV SAVING "           WELLS" ON UNIT 34 AT TIME STEP 46, STRESS PERIOD 3

 HEAD WILL BE SAVED ON UNIT   35 AT END OF TIME STEP    46 IN STRESS PERIOD      3
 
 SOLVING FOR HEAD 
     7 ITERATIONS FOR TIME STEP  47 IN STRESS PERIOD    3

 MAXIMUM HEAD CHANGE FOR EACH ITERATION:

    HEAD CHANGE   HEAD CHANGE   HEAD CHANGE   HEAD CHANGE   HEAD CHANGE
  LAYER,ROW,COL LAYER,ROW,COL LAYER,ROW,COL LAYER,ROW,COL LAYER,ROW,COL
 ----------------------------------------------------------------------
     0.3605E-01    0.1440E-01    0.1152E-01    0.1756E-02    0.9900E-03
  (  1, 12, 15) (  3, 11, 14) (  4, 11, 12) (  4, 12, 15) (  4, 14, 14)
     0.2424E-03    0.5339E-04
  (  4, 14, 14) (  3, 16, 13)



Solver Convergence Information:
                              HClose:  5.3392071E-5
                              RClose:  0.0107726
                           L2-RClose:  0.0475591
                         Rel-Vol-Err:  1.3465728E-11
 

 OUTPUT CONTROL FOR STRESS PERIOD      3   TIME STEP    47
    SAVE BUDGET
    SAVE HEAD FOR ALL LAYERS
 UBUDSV SAVING "         STORAGE" ON UNIT 34 AT TIME STEP 47, STRESS PERIOD 3
 UBUDSV SAVING "   CONSTANT HEAD" ON UNIT 34 AT TIME STEP 47, STRESS PERIOD 3
 UBUDSV SAVING "FLOW RIGHT FACE " ON UNIT 34 AT TIME STEP 47, STRESS PERIOD 3
 UBUDSV SAVING "FLOW FRONT FACE " ON UNIT 34 AT TIME STEP 47, STRESS PERIOD 3
 UBUDSV SAVING "FLOW LOWER FACE " ON UNIT 34 AT TIME STEP 47, STRESS PERIOD 3
 UBUDSV SAVING "           WELLS" ON UNIT 34 AT TIME STEP 47, STRESS PERIOD 3

 HEAD WILL BE SAVED ON UNIT   35 AT END OF TIME STEP    47 IN STRESS PERIOD      3
 
 SOLVING FOR HEAD 
     7 ITERATIONS FOR TIME STEP  48 IN STRESS PERIOD    3

 MAXIMUM HEAD CHANGE FOR EACH ITERATION:

    HEAD CHANGE   HEAD CHANGE   HEAD CHANGE   HEAD CHANGE   HEAD CHANGE
  LAYER,ROW,COL LAYER,ROW,COL LAYER,ROW,COL LAYER,ROW,COL LAYER,ROW,COL
 ----------------------------------------------------------------------
     0.3554E-01    0.1418E-01    0.1131E-01    0.1735E-02    0.9805E-03
  (  1, 12, 15) (  3, 11, 14) (  4, 11, 12) (  4, 12, 15) (  4, 14, 14)
     0.2402E-03    0.5296E-04
  (  4, 14, 14) (  3, 16, 13)



Solver Convergence Information:
                              HClose:  5.2964448E-5
                              RClose:  0.0106389
                           L2-RClose:  0.0470761
                         Rel-Vol-Err:  1.3298603E-11
 

 OUTPUT CONTROL FOR STRESS PERIOD      3   TIME STEP    48
    SAVE BUDGET
    SAVE HEAD FOR ALL LAYERS
 UBUDSV SAVING "         STORAGE" ON UNIT 34 AT TIME STEP 48, STRESS PERIOD 3
 UBUDSV SAVING "   CONSTANT HEAD" ON UNIT 34 AT TIME STEP 48, STRESS PERIOD 3
 UBUDSV SAVING "FLOW RIGHT FACE " ON UNIT 34 AT TIME STEP 48, STRESS PERIOD 3
 UBUDSV SAVING "FLOW FRONT FACE " ON UNIT 34 AT TIME STEP 48, STRESS PERIOD 3
 UBUDSV SAVING "FLOW LOWER FACE " ON UNIT 34 AT TIME STEP 48, STRESS PERIOD 3
 UBUDSV SAVING "           WELLS" ON UNIT 34 AT TIME STEP 48, STRESS PERIOD 3

 HEAD WILL BE SAVED ON UNIT   35 AT END OF TIME STEP    48 IN STRESS PERIOD      3
 
 SOLVING FOR HEAD 
     7 ITERATIONS FOR TIME STEP  49 IN STRESS PERIOD    3

 MAXIMUM HEAD CHANGE FOR EACH ITERATION:

    HEAD CHANGE   HEAD CHANGE   HEAD CHANGE   HEAD CHANGE   HEAD CHANGE
  LAYER,ROW,COL LAYER,ROW,COL LAYER,ROW,COL LAYER,ROW,COL LAYER,ROW,COL
 ----------------------------------------------------------------------
     0.3503E-01    0.1396E-01    0.1111E-01    0.1714E-02    0.9708E-03
  (  1, 12, 15) (  3, 11, 14) (  4, 11, 12) (  4, 12, 15) (  4, 14, 14)
     0.2378E-03    0.5252E-04
  (  4, 14, 14) (  3, 16, 13)



Solver Convergence Information:
                              HClose:  5.2518438E-5
                              RClose:  0.0105047
                           L2-RClose:  0.0465881
                         Rel-Vol-Err:  1.3130824E-11
 

 OUTPUT CONTROL FOR STRESS PERIOD      3   TIME STEP    49
    SAVE BUDGET
    SAVE HEAD FOR ALL LAYERS
 UBUDSV SAVING "         STORAGE" ON UNIT 34 AT TIME STEP 49, STRESS PERIOD 3
 UBUDSV SAVING "   CONSTANT HEAD" ON UNIT 34 AT TIME STEP 49, STRESS PERIOD 3
 UBUDSV SAVING "FLOW RIGHT FACE " ON UNIT 34 AT TIME STEP 49, STRESS PERIOD 3
 UBUDSV SAVING "FLOW FRONT FACE " ON UNIT 34 AT TIME STEP 49, STRESS PERIOD 3
 UBUDSV SAVING "FLOW LOWER FACE " ON UNIT 34 AT TIME STEP 49, STRESS PERIOD 3
 UBUDSV SAVING "           WELLS" ON UNIT 34 AT TIME STEP 49, STRESS PERIOD 3

 HEAD WILL BE SAVED ON UNIT   35 AT END OF TIME STEP    49 IN STRESS PERIOD      3
 
 SOLVING FOR HEAD 
     7 ITERATIONS FOR TIME STEP  50 IN STRESS PERIOD    3

 MAXIMUM HEAD CHANGE FOR EACH ITERATION:

    HEAD CHANGE   HEAD CHANGE   HEAD CHANGE   HEAD CHANGE   HEAD CHANGE
  LAYER,ROW,COL LAYER,ROW,COL LAYER,ROW,COL LAYER,ROW,COL LAYER,ROW,COL
 ----------------------------------------------------------------------
     0.3452E-01    0.1375E-01    0.1092E-01    0.1693E-02    0.9610E-03
  (  1, 12, 15) (  3, 12, 14) (  4, 11, 12) (  4, 12, 15) (  4, 14, 14)
     0.2354E-03    0.5206E-04
  (  4, 14, 14) (  3, 16, 13)



Solver Convergence Information:
                              HClose:  5.2056889E-5
                              RClose:  0.0103919
                           L2-RClose:  0.0460961
                         Rel-Vol-Err:  1.2989845E-11
 

 OUTPUT CONTROL FOR STRESS PERIOD      3   TIME STEP    50
    SAVE BUDGET
    SAVE HEAD FOR ALL LAYERS
 UBUDSV SAVING "         STORAGE" ON UNIT 34 AT TIME STEP 50, STRESS PERIOD 3
 UBUDSV SAVING "   CONSTANT HEAD" ON UNIT 34 AT TIME STEP 50, STRESS PERIOD 3
 UBUDSV SAVING "FLOW RIGHT FACE " ON UNIT 34 AT TIME STEP 50, STRESS PERIOD 3
 UBUDSV SAVING "FLOW FRONT FACE " ON UNIT 34 AT TIME STEP 50, STRESS PERIOD 3
 UBUDSV SAVING "FLOW LOWER FACE " ON UNIT 34 AT TIME STEP 50, STRESS PERIOD 3
 UBUDSV SAVING "           WELLS" ON UNIT 34 AT TIME STEP 50, STRESS PERIOD 3

 HEAD WILL BE SAVED ON UNIT   35 AT END OF TIME STEP    50 IN STRESS PERIOD      3
 
 SOLVING FOR HEAD 
     7 ITERATIONS FOR TIME STEP  51 IN STRESS PERIOD    3

 MAXIMUM HEAD CHANGE FOR EACH ITERATION:

    HEAD CHANGE   HEAD CHANGE   HEAD CHANGE   HEAD CHANGE   HEAD CHANGE
  LAYER,ROW,COL LAYER,ROW,COL LAYER,ROW,COL LAYER,ROW,COL LAYER,ROW,COL
 ----------------------------------------------------------------------
     0.3400E-01    0.1355E-01    0.1073E-01    0.1672E-02    0.9510E-03
  (  1, 12, 15) (  3, 12, 14) (  4, 11, 12) (  4, 12, 15) (  4, 14, 14)
     0.2330E-03    0.5158E-04
  (  4, 14, 14) (  3, 16, 13)



Solver Convergence Information:
                              HClose:  5.1582365E-5
                              RClose:  0.0102972
                           L2-RClose:  0.0456016
                         Rel-Vol-Err:  1.2871528E-11
 

 OUTPUT CONTROL FOR STRESS PERIOD      3   TIME STEP    51
    SAVE BUDGET
    SAVE HEAD FOR ALL LAYERS
 UBUDSV SAVING "         STORAGE" ON UNIT 34 AT TIME STEP 51, STRESS PERIOD 3
 UBUDSV SAVING "   CONSTANT HEAD" ON UNIT 34 AT TIME STEP 51, STRESS PERIOD 3
 UBUDSV SAVING "FLOW RIGHT FACE " ON UNIT 34 AT TIME STEP 51, STRESS PERIOD 3
 UBUDSV SAVING "FLOW FRONT FACE " ON UNIT 34 AT TIME STEP 51, STRESS PERIOD 3
 UBUDSV SAVING "FLOW LOWER FACE " ON UNIT 34 AT TIME STEP 51, STRESS PERIOD 3
 UBUDSV SAVING "           WELLS" ON UNIT 34 AT TIME STEP 51, STRESS PERIOD 3

 HEAD WILL BE SAVED ON UNIT   35 AT END OF TIME STEP    51 IN STRESS PERIOD      3
 
 SOLVING FOR HEAD 
     7 ITERATIONS FOR TIME STEP  52 IN STRESS PERIOD    3

 MAXIMUM HEAD CHANGE FOR EACH ITERATION:

    HEAD CHANGE   HEAD CHANGE   HEAD CHANGE   HEAD CHANGE   HEAD CHANGE
  LAYER,ROW,COL LAYER,ROW,COL LAYER,ROW,COL LAYER,ROW,COL LAYER,ROW,COL
 ----------------------------------------------------------------------
     0.3349E-01    0.1336E-01    0.1055E-01    0.1651E-02    0.9409E-03
  (  1, 12, 15) (  3, 12, 14) (  4, 11, 12) (  4, 12, 15) (  4, 14, 14)
     0.2306E-03    0.5110E-04
  (  4, 14, 14) (  3, 16, 13)



Solver Convergence Information:
                              HClose:  5.1097174E-5
                              RClose:  0.0102003
                           L2-RClose:  0.0451055
                         Rel-Vol-Err:  1.2750415E-11
 

 OUTPUT CONTROL FOR STRESS PERIOD      3   TIME STEP    52
    SAVE BUDGET
    SAVE HEAD FOR ALL LAYERS
 UBUDSV SAVING "         STORAGE" ON UNIT 34 AT TIME STEP 52, STRESS PERIOD 3
 UBUDSV SAVING "   CONSTANT HEAD" ON UNIT 34 AT TIME STEP 52, STRESS PERIOD 3
 UBUDSV SAVING "FLOW RIGHT FACE " ON UNIT 34 AT TIME STEP 52, STRESS PERIOD 3
 UBUDSV SAVING "FLOW FRONT FACE " ON UNIT 34 AT TIME STEP 52, STRESS PERIOD 3
 UBUDSV SAVING "FLOW LOWER FACE " ON UNIT 34 AT TIME STEP 52, STRESS PERIOD 3
 UBUDSV SAVING "           WELLS" ON UNIT 34 AT TIME STEP 52, STRESS PERIOD 3

 HEAD WILL BE SAVED ON UNIT   35 AT END OF TIME STEP    52 IN STRESS PERIOD      3
 
 SOLVING FOR HEAD 
     7 ITERATIONS FOR TIME STEP  53 IN STRESS PERIOD    3

 MAXIMUM HEAD CHANGE FOR EACH ITERATION:

    HEAD CHANGE   HEAD CHANGE   HEAD CHANGE   HEAD CHANGE   HEAD CHANGE
  LAYER,ROW,COL LAYER,ROW,COL LAYER,ROW,COL LAYER,ROW,COL LAYER,ROW,COL
 ----------------------------------------------------------------------
     0.3298E-01    0.1317E-01    0.1038E-01    0.1630E-02    0.9307E-03
  (  1, 12, 15) (  3, 12, 14) (  4, 11, 12) (  4, 12, 15) (  4, 14, 14)
     0.2281E-03    0.5060E-04
  (  4, 14, 14) (  3, 16, 13)



Solver Convergence Information:
                              HClose:  5.0603391E-5
                              RClose:  0.0101016
                           L2-RClose:  0.0446088
                         Rel-Vol-Err:  1.2627054E-11
 

 OUTPUT CONTROL FOR STRESS PERIOD      3   TIME STEP    53
    SAVE BUDGET
    SAVE HEAD FOR ALL LAYERS
 UBUDSV SAVING "         STORAGE" ON UNIT 34 AT TIME STEP 53, STRESS PERIOD 3
 UBUDSV SAVING "   CONSTANT HEAD" ON UNIT 34 AT TIME STEP 53, STRESS PERIOD 3
 UBUDSV SAVING "FLOW RIGHT FACE " ON UNIT 34 AT TIME STEP 53, STRESS PERIOD 3
 UBUDSV SAVING "FLOW FRONT FACE " ON UNIT 34 AT TIME STEP 53, STRESS PERIOD 3
 UBUDSV SAVING "FLOW LOWER FACE " ON UNIT 34 AT TIME STEP 53, STRESS PERIOD 3
 UBUDSV SAVING "           WELLS" ON UNIT 34 AT TIME STEP 53, STRESS PERIOD 3

 HEAD WILL BE SAVED ON UNIT   35 AT END OF TIME STEP    53 IN STRESS PERIOD      3
 
 SOLVING FOR HEAD 
     7 ITERATIONS FOR TIME STEP  54 IN STRESS PERIOD    3

 MAXIMUM HEAD CHANGE FOR EACH ITERATION:

    HEAD CHANGE   HEAD CHANGE   HEAD CHANGE   HEAD CHANGE   HEAD CHANGE
  LAYER,ROW,COL LAYER,ROW,COL LAYER,ROW,COL LAYER,ROW,COL LAYER,ROW,COL
 ----------------------------------------------------------------------
     0.3247E-01    0.1297E-01    0.1021E-01    0.1610E-02    0.9205E-03
  (  1, 12, 15) (  3, 12, 14) (  4, 11, 12) (  4, 12, 15) (  4, 14, 14)
     0.2257E-03    0.5010E-04
  (  4, 14, 14) (  3, 16, 13)



Solver Convergence Information:
                              HClose:  5.0102883E-5
                              RClose:  0.0100015
                           L2-RClose:  0.0441125
                         Rel-Vol-Err:  1.2501936E-11
 

 OUTPUT CONTROL FOR STRESS PERIOD      3   TIME STEP    54
    SAVE BUDGET
    SAVE HEAD FOR ALL LAYERS
 UBUDSV SAVING "         STORAGE" ON UNIT 34 AT TIME STEP 54, STRESS PERIOD 3
 UBUDSV SAVING "   CONSTANT HEAD" ON UNIT 34 AT TIME STEP 54, STRESS PERIOD 3
 UBUDSV SAVING "FLOW RIGHT FACE " ON UNIT 34 AT TIME STEP 54, STRESS PERIOD 3
 UBUDSV SAVING "FLOW FRONT FACE " ON UNIT 34 AT TIME STEP 54, STRESS PERIOD 3
 UBUDSV SAVING "FLOW LOWER FACE " ON UNIT 34 AT TIME STEP 54, STRESS PERIOD 3
 UBUDSV SAVING "           WELLS" ON UNIT 34 AT TIME STEP 54, STRESS PERIOD 3

 HEAD WILL BE SAVED ON UNIT   35 AT END OF TIME STEP    54 IN STRESS PERIOD      3
 
 SOLVING FOR HEAD 
     7 ITERATIONS FOR TIME STEP  55 IN STRESS PERIOD    3

 MAXIMUM HEAD CHANGE FOR EACH ITERATION:

    HEAD CHANGE   HEAD CHANGE   HEAD CHANGE   HEAD CHANGE   HEAD CHANGE
  LAYER,ROW,COL LAYER,ROW,COL LAYER,ROW,COL LAYER,ROW,COL LAYER,ROW,COL
 ----------------------------------------------------------------------
     0.3197E-01    0.1278E-01    0.1005E-01    0.1589E-02    0.9103E-03
  (  1, 12, 15) (  3, 12, 14) (  4, 11, 12) (  4, 12, 15) (  4, 14, 14)
     0.2232E-03    0.4960E-04
  (  4, 14, 14) (  3, 16, 13)



Solver Convergence Information:
                              HClose:  4.9597323E-5
                              RClose:  0.0099004
                           L2-RClose:  0.0436175
                         Rel-Vol-Err:  0.0
 

 OUTPUT CONTROL FOR STRESS PERIOD      3   TIME STEP    55
    SAVE BUDGET
    SAVE HEAD FOR ALL LAYERS
 UBUDSV SAVING "         STORAGE" ON UNIT 34 AT TIME STEP 55, STRESS PERIOD 3
 UBUDSV SAVING "   CONSTANT HEAD" ON UNIT 34 AT TIME STEP 55, STRESS PERIOD 3
 UBUDSV SAVING "FLOW RIGHT FACE " ON UNIT 34 AT TIME STEP 55, STRESS PERIOD 3
 UBUDSV SAVING "FLOW FRONT FACE " ON UNIT 34 AT TIME STEP 55, STRESS PERIOD 3
 UBUDSV SAVING "FLOW LOWER FACE " ON UNIT 34 AT TIME STEP 55, STRESS PERIOD 3
 UBUDSV SAVING "           WELLS" ON UNIT 34 AT TIME STEP 55, STRESS PERIOD 3

 HEAD WILL BE SAVED ON UNIT   35 AT END OF TIME STEP    55 IN STRESS PERIOD      3
 
 SOLVING FOR HEAD 
     7 ITERATIONS FOR TIME STEP  56 IN STRESS PERIOD    3

 MAXIMUM HEAD CHANGE FOR EACH ITERATION:

    HEAD CHANGE   HEAD CHANGE   HEAD CHANGE   HEAD CHANGE   HEAD CHANGE
  LAYER,ROW,COL LAYER,ROW,COL LAYER,ROW,COL LAYER,ROW,COL LAYER,ROW,COL
 ----------------------------------------------------------------------
     0.3147E-01    0.1260E-01    0.9895E-02    0.1569E-02    0.9001E-03
  (  1, 12, 15) (  3, 12, 14) (  4, 11, 12) (  4, 12, 15) (  4, 14, 14)
     0.2207E-03    0.4909E-04
  (  4, 14, 14) (  3, 16, 13)



Solver Convergence Information:
                              HClose:  4.9088214E-5
                              RClose:  0.0097985
                           L2-RClose:  0.0431244
                         Rel-Vol-Err:  0.0
 

 OUTPUT CONTROL FOR STRESS PERIOD      3   TIME STEP    56
    SAVE BUDGET
    SAVE HEAD FOR ALL LAYERS
 UBUDSV SAVING "         STORAGE" ON UNIT 34 AT TIME STEP 56, STRESS PERIOD 3
 UBUDSV SAVING "   CONSTANT HEAD" ON UNIT 34 AT TIME STEP 56, STRESS PERIOD 3
 UBUDSV SAVING "FLOW RIGHT FACE " ON UNIT 34 AT TIME STEP 56, STRESS PERIOD 3
 UBUDSV SAVING "FLOW FRONT FACE " ON UNIT 34 AT TIME STEP 56, STRESS PERIOD 3
 UBUDSV SAVING "FLOW LOWER FACE " ON UNIT 34 AT TIME STEP 56, STRESS PERIOD 3
 UBUDSV SAVING "           WELLS" ON UNIT 34 AT TIME STEP 56, STRESS PERIOD 3

 HEAD WILL BE SAVED ON UNIT   35 AT END OF TIME STEP    56 IN STRESS PERIOD      3
 
 SOLVING FOR HEAD 
     7 ITERATIONS FOR TIME STEP  57 IN STRESS PERIOD    3

 MAXIMUM HEAD CHANGE FOR EACH ITERATION:

    HEAD CHANGE   HEAD CHANGE   HEAD CHANGE   HEAD CHANGE   HEAD CHANGE
  LAYER,ROW,COL LAYER,ROW,COL LAYER,ROW,COL LAYER,ROW,COL LAYER,ROW,COL
 ----------------------------------------------------------------------
     0.3098E-01    0.1241E-01    0.9744E-02    0.1549E-02    0.8900E-03
  (  1, 12, 15) (  3, 12, 14) (  4, 11, 12) (  4, 12, 15) (  4, 14, 14)
     0.2183E-03    0.4858E-04
  (  4, 14, 14) (  3, 16, 13)



Solver Convergence Information:
                              HClose:  4.8576902E-5
                              RClose:  0.0096962
                           L2-RClose:  0.0426339
                         Rel-Vol-Err:  0.0
 

 OUTPUT CONTROL FOR STRESS PERIOD      3   TIME STEP    57
    SAVE BUDGET
    SAVE HEAD FOR ALL LAYERS
 UBUDSV SAVING "         STORAGE" ON UNIT 34 AT TIME STEP 57, STRESS PERIOD 3
 UBUDSV SAVING "   CONSTANT HEAD" ON UNIT 34 AT TIME STEP 57, STRESS PERIOD 3
 UBUDSV SAVING "FLOW RIGHT FACE " ON UNIT 34 AT TIME STEP 57, STRESS PERIOD 3
 UBUDSV SAVING "FLOW FRONT FACE " ON UNIT 34 AT TIME STEP 57, STRESS PERIOD 3
 UBUDSV SAVING "FLOW LOWER FACE " ON UNIT 34 AT TIME STEP 57, STRESS PERIOD 3
 UBUDSV SAVING "           WELLS" ON UNIT 34 AT TIME STEP 57, STRESS PERIOD 3

 HEAD WILL BE SAVED ON UNIT   35 AT END OF TIME STEP    57 IN STRESS PERIOD      3
 
 SOLVING FOR HEAD 
     7 ITERATIONS FOR TIME STEP  58 IN STRESS PERIOD    3

 MAXIMUM HEAD CHANGE FOR EACH ITERATION:

    HEAD CHANGE   HEAD CHANGE   HEAD CHANGE   HEAD CHANGE   HEAD CHANGE
  LAYER,ROW,COL LAYER,ROW,COL LAYER,ROW,COL LAYER,ROW,COL LAYER,ROW,COL
 ----------------------------------------------------------------------
     0.3050E-01    0.1223E-01    0.9598E-02    0.1529E-02    0.8798E-03
  (  1, 12, 15) (  3, 12, 14) (  4, 11, 12) (  4, 12, 15) (  4, 14, 14)
     0.2158E-03    0.4806E-04
  (  4, 14, 14) (  3, 16, 13)



Solver Convergence Information:
                              HClose:  4.8064592E-5
                              RClose:  0.0095936
                           L2-RClose:  0.0421468
                         Rel-Vol-Err:  0.0
 

 OUTPUT CONTROL FOR STRESS PERIOD      3   TIME STEP    58
    SAVE BUDGET
    SAVE HEAD FOR ALL LAYERS
 UBUDSV SAVING "         STORAGE" ON UNIT 34 AT TIME STEP 58, STRESS PERIOD 3
 UBUDSV SAVING "   CONSTANT HEAD" ON UNIT 34 AT TIME STEP 58, STRESS PERIOD 3
 UBUDSV SAVING "FLOW RIGHT FACE " ON UNIT 34 AT TIME STEP 58, STRESS PERIOD 3
 UBUDSV SAVING "FLOW FRONT FACE " ON UNIT 34 AT TIME STEP 58, STRESS PERIOD 3
 UBUDSV SAVING "FLOW LOWER FACE " ON UNIT 34 AT TIME STEP 58, STRESS PERIOD 3
 UBUDSV SAVING "           WELLS" ON UNIT 34 AT TIME STEP 58, STRESS PERIOD 3

 HEAD WILL BE SAVED ON UNIT   35 AT END OF TIME STEP    58 IN STRESS PERIOD      3
 
 SOLVING FOR HEAD 
     7 ITERATIONS FOR TIME STEP  59 IN STRESS PERIOD    3

 MAXIMUM HEAD CHANGE FOR EACH ITERATION:

    HEAD CHANGE   HEAD CHANGE   HEAD CHANGE   HEAD CHANGE   HEAD CHANGE
  LAYER,ROW,COL LAYER,ROW,COL LAYER,ROW,COL LAYER,ROW,COL LAYER,ROW,COL
 ----------------------------------------------------------------------
     0.3002E-01    0.1205E-01    0.9458E-02    0.1510E-02    0.8698E-03
  (  1, 12, 15) (  3, 12, 14) (  4, 12, 11) (  4, 12, 15) (  4, 14, 14)
     0.2134E-03    0.4755E-04
  (  4, 14, 14) (  3, 16, 13)



Solver Convergence Information:
                              HClose:  4.7552358E-5
                              RClose:  0.0094911
                           L2-RClose:  0.0416634
                         Rel-Vol-Err:  0.0
 

 OUTPUT CONTROL FOR STRESS PERIOD      3   TIME STEP    59
    SAVE BUDGET
    SAVE HEAD FOR ALL LAYERS
 UBUDSV SAVING "         STORAGE" ON UNIT 34 AT TIME STEP 59, STRESS PERIOD 3
 UBUDSV SAVING "   CONSTANT HEAD" ON UNIT 34 AT TIME STEP 59, STRESS PERIOD 3
 UBUDSV SAVING "FLOW RIGHT FACE " ON UNIT 34 AT TIME STEP 59, STRESS PERIOD 3
 UBUDSV SAVING "FLOW FRONT FACE " ON UNIT 34 AT TIME STEP 59, STRESS PERIOD 3
 UBUDSV SAVING "FLOW LOWER FACE " ON UNIT 34 AT TIME STEP 59, STRESS PERIOD 3
 UBUDSV SAVING "           WELLS" ON UNIT 34 AT TIME STEP 59, STRESS PERIOD 3

 HEAD WILL BE SAVED ON UNIT   35 AT END OF TIME STEP    59 IN STRESS PERIOD      3
 
 SOLVING FOR HEAD 
     7 ITERATIONS FOR TIME STEP  60 IN STRESS PERIOD    3

 MAXIMUM HEAD CHANGE FOR EACH ITERATION:

    HEAD CHANGE   HEAD CHANGE   HEAD CHANGE   HEAD CHANGE   HEAD CHANGE
  LAYER,ROW,COL LAYER,ROW,COL LAYER,ROW,COL LAYER,ROW,COL LAYER,ROW,COL
 ----------------------------------------------------------------------
     0.2955E-01    0.1188E-01    0.9332E-02    0.1491E-02    0.8598E-03
  (  1, 12, 15) (  3, 12, 14) (  4, 12, 11) (  4, 12, 15) (  4, 14, 14)
     0.2110E-03    0.4704E-04
  (  4, 14, 14) (  3, 16, 13)



Solver Convergence Information:
                              HClose:  4.7041160E-5
                              RClose:  0.0093888
                           L2-RClose:  0.0411844
                         Rel-Vol-Err:  0.0
 

 OUTPUT CONTROL FOR STRESS PERIOD      3   TIME STEP    60
    PRINT BUDGET
    SAVE BUDGET
    PRINT HEAD FOR ALL LAYERS
    SAVE HEAD FOR ALL LAYERS
 UBUDSV SAVING "         STORAGE" ON UNIT 34 AT TIME STEP 60, STRESS PERIOD 3
 UBUDSV SAVING "   CONSTANT HEAD" ON UNIT 34 AT TIME STEP 60, STRESS PERIOD 3
 UBUDSV SAVING "FLOW RIGHT FACE " ON UNIT 34 AT TIME STEP 60, STRESS PERIOD 3
 UBUDSV SAVING "FLOW FRONT FACE " ON UNIT 34 AT TIME STEP 60, STRESS PERIOD 3
 UBUDSV SAVING "FLOW LOWER FACE " ON UNIT 34 AT TIME STEP 60, STRESS PERIOD 3
 UBUDSV SAVING "           WELLS" ON UNIT 34 AT TIME STEP 60, STRESS PERIOD 3
1
              HEAD IN LAYER   1 AT END OF TIME STEP  60 IN STRESS PERIOD    3
  ---------------------------------------------------------------------------

           1       2       3       4       5       6       7       8       9      10      11      12      13      14      15
 ...........................................................................................................................
   1    0.000   0.000   0.000   0.000   0.000 131.172 131.341 132.041 131.208 130.923   0.000   0.000   0.000   0.000   0.000
   2    0.000   0.000   0.000   0.000 131.896 131.078 131.033 131.604 130.876 130.689 130.855 131.758   0.000   0.000   0.000
   3    0.000   0.000   0.000 131.367 130.786 130.431 130.318 130.355 130.193 130.168 130.353 130.755   0.000   0.000   0.000
   4    0.000   0.000   0.000 130.029 129.817 129.623 129.513 129.468 129.427 129.484 129.748 130.559   0.000   0.000   0.000
   5    0.000   0.000 129.720 129.150 128.919 128.764 128.661 128.603 128.584 128.637 128.801 129.116 129.555   0.000   0.000
   6    0.000   0.000 128.349 128.159 127.999 127.870 127.774 127.713 127.689 127.714 127.799 127.940 128.125 128.504   0.000
   7    0.000 127.947 127.421 127.221 127.080 126.962 126.867 126.800 126.766 126.767 126.802 126.860 126.926 126.998   0.000
   8    0.000 126.525 126.408 126.288 126.168 126.053 125.954 125.880 125.837 125.823 125.833 125.852 125.859 125.842   0.000
   9  125.098 125.459 125.486 125.402 125.281 125.156 125.045 124.963 124.915 124.900 124.908 124.918 124.896 124.768 124.333
  10  124.783 124.794 124.723 124.593 124.435 124.280 124.147 124.053 124.006 124.003 124.034 124.079 124.106 124.078 123.972
  11  124.498 124.256 124.064 123.851 123.628 123.422 123.255 123.146 123.104 123.129 123.209 123.323 123.444 123.538 123.581
  12    0.000 123.720 123.476 123.164 122.852 122.573 122.357 122.225 122.193 122.260 122.414 122.632 122.884 123.131 123.313
  13    0.000 123.515 123.024 122.535 122.093 121.715 121.427 121.262 121.241 121.369 121.625 121.983 122.422 122.899   0.000
  14    0.000 124.073 122.687 121.930 121.329 120.822 120.432 120.211 120.203 120.414 120.809 121.344 122.058 123.442   0.000
  15    0.000   0.000 121.998 121.272 120.539 119.871 119.323 119.004 119.006 119.341 119.931 120.647 121.324   0.000   0.000
  16    0.000   0.000 122.346 120.750 119.764 118.859 118.042 117.532 117.535 118.082 119.018 120.140 121.605   0.000   0.000
  17    0.000   0.000   0.000 119.903 119.008 117.829 116.515 115.599 115.578 116.504 118.039 119.622 121.462   0.000   0.000
  18    0.000   0.000   0.000 120.265 118.668 117.017 114.669 112.826 112.722 114.393 117.168 119.357   0.000   0.000   0.000
  19    0.000   0.000   0.000   0.000   0.000   0.000 112.556 108.374 108.117 111.232   0.000   0.000   0.000   0.000   0.000
  20    0.000   0.000   0.000   0.000   0.000   0.000   0.000 100.000 100.000   0.000   0.000   0.000   0.000   0.000   0.000
1
              HEAD IN LAYER   2 AT END OF TIME STEP  60 IN STRESS PERIOD    3
  ---------------------------------------------------------------------------

           1       2       3       4       5       6       7       8       9      10      11      12      13      14      15
 ...........................................................................................................................
   1    0.000   0.000   0.000   0.000   0.000 131.167 131.333 131.926 131.200 130.919   0.000   0.000   0.000   0.000   0.000
   2    0.000   0.000   0.000   0.000 131.779 131.071 131.026 131.492 130.869 130.685 130.849 131.643   0.000   0.000   0.000
   3    0.000   0.000   0.000 131.251 130.776 130.427 130.315 130.349 130.191 130.166 130.349 130.745   0.000   0.000   0.000
   4    0.000   0.000   0.000 130.022 129.814 129.621 129.511 129.466 129.426 129.483 129.744 130.449   0.000   0.000   0.000
   5    0.000   0.000 129.607 129.144 128.917 128.763 128.661 128.603 128.585 128.637 128.800 129.110 129.443   0.000   0.000
   6    0.000   0.000 128.344 128.158 127.999 127.871 127.775 127.714 127.690 127.716 127.800 127.941 128.119 128.394   0.000
   7    0.000 127.835 127.418 127.221 127.081 126.963 126.869 126.803 126.769 126.770 126.805 126.863 126.929 126.997   0.000
   8    0.000 126.522 126.409 126.290 126.170 126.055 125.957 125.883 125.840 125.827 125.838 125.856 125.863 125.846   0.000
   9  125.101 125.462 125.488 125.405 125.284 125.159 125.049 124.967 124.919 124.904 124.913 124.923 124.901 124.774 124.340
  10  124.786 124.797 124.727 124.596 124.439 124.284 124.151 124.058 124.011 124.008 124.040 124.085 124.113 124.084 123.979
  11  124.501 124.260 124.068 123.855 123.633 123.427 123.260 123.151 123.109 123.135 123.215 123.330 123.450 123.545 123.588
  12    0.000 123.724 123.480 123.169 122.856 122.578 122.362 122.230 122.198 122.266 122.420 122.638 122.891 123.138 123.320
  13    0.000 123.515 123.028 122.539 122.098 121.720 121.432 121.267 121.247 121.375 121.631 121.989 122.427 122.902   0.000
  14    0.000 123.965 122.687 121.934 121.334 120.827 120.437 120.216 120.208 120.419 120.814 121.350 122.060 123.336   0.000
  15    0.000   0.000 121.998 121.275 120.543 119.875 119.328 119.009 119.011 119.346 119.936 120.651 121.325   0.000   0.000
  16    0.000   0.000 122.238 120.750 119.767 118.863 118.046 117.536 117.540 118.086 119.022 120.140 121.497   0.000   0.000
  17    0.000   0.000   0.000 119.903 119.011 117.833 116.518 115.601 115.580 116.507 118.041 119.618 121.350   0.000   0.000
  18    0.000   0.000   0.000 120.157 118.668 117.019 114.667 112.825 112.722 114.393 117.167 119.249   0.000   0.000   0.000
  19    0.000   0.000   0.000   0.000   0.000   0.000 112.445 108.362 108.109 111.232   0.000   0.000   0.000   0.000   0.000
  20    0.000   0.000   0.000   0.000   0.000   0.000   0.000 100.000 100.000   0.000   0.000   0.000   0.000   0.000   0.000
1
              HEAD IN LAYER   3 AT END OF TIME STEP  60 IN STRESS PERIOD    3
  ---------------------------------------------------------------------------

           1       2       3       4       5       6       7       8       9      10      11      12      13      14      15
 ...........................................................................................................................
   1    0.000   0.000   0.000   0.000   0.000 131.096 131.209 131.564 131.085 130.869   0.000   0.000   0.000   0.000   0.000
   2    0.000   0.000   0.000   0.000 131.391 130.953 130.913 131.179 130.772 130.632 130.735 131.259   0.000   0.000   0.000
   3    0.000   0.000   0.000 130.863 130.608 130.359 130.263 130.269 130.149 130.132 130.278 130.573   0.000   0.000   0.000
   4    0.000   0.000   0.000 129.899 129.750 129.591 129.491 129.444 129.409 129.458 129.661 130.127   0.000   0.000   0.000
   5    0.000   0.000 129.243 129.043 128.884 128.750 128.654 128.599 128.582 128.628 128.760 128.970 129.066   0.000   0.000
   6    0.000   0.000 128.237 128.116 127.986 127.869 127.778 127.719 127.696 127.719 127.791 127.894 127.977 128.036   0.000
   7    0.000 127.485 127.329 127.201 127.080 126.970 126.878 126.814 126.781 126.783 126.815 126.861 126.899 126.921   0.000
   8    0.000 126.443 126.384 126.289 126.178 126.067 125.971 125.900 125.859 125.847 125.858 125.874 125.875 125.849   0.000
   9  125.113 125.458 125.493 125.416 125.299 125.176 125.068 124.988 124.942 124.929 124.939 124.950 124.928 124.801 124.373
  10  124.802 124.810 124.742 124.614 124.459 124.305 124.174 124.083 124.037 124.037 124.070 124.116 124.145 124.117 124.015
  11  124.519 124.275 124.086 123.875 123.655 123.451 123.286 123.179 123.138 123.165 123.247 123.362 123.483 123.577 123.624
  12    0.000 123.723 123.492 123.188 122.880 122.604 122.389 122.259 122.228 122.297 122.452 122.668 122.916 123.155 123.353
  13    0.000 123.446 123.015 122.552 122.120 121.746 121.460 121.296 121.277 121.405 121.660 122.010 122.425 122.846   0.000
  14    0.000 123.624 122.615 121.932 121.352 120.851 120.463 120.244 120.237 120.447 120.837 121.353 121.995 123.005   0.000
  15    0.000   0.000 121.912 121.257 120.554 119.896 119.351 119.034 119.036 119.369 119.949 120.633 121.238   0.000   0.000
  16    0.000   0.000 121.890 120.675 119.762 118.877 118.063 117.554 117.558 118.100 119.012 120.048 121.125   0.000   0.000
  17    0.000   0.000   0.000 119.814 118.989 117.833 116.514 115.604 115.587 116.507 118.003 119.454 120.897   0.000   0.000
  18    0.000   0.000   0.000 119.804 118.589 116.994 114.593 112.793 112.707 114.375 117.080 118.872   0.000   0.000   0.000
  19    0.000   0.000   0.000   0.000   0.000   0.000 112.071 108.265 108.072 111.219   0.000   0.000   0.000   0.000   0.000
  20    0.000   0.000   0.000   0.000   0.000   0.000   0.000 100.000 100.000   0.000   0.000   0.000   0.000   0.000   0.000
1
              HEAD IN LAYER   4 AT END OF TIME STEP  60 IN STRESS PERIOD    3
  ---------------------------------------------------------------------------

           1       2       3       4       5       6       7       8       9      10      11      12      13      14      15
 ...........................................................................................................................
   1    0.000   0.000   0.000   0.000   0.000 131.023 131.082 131.193 130.966 130.818   0.000   0.000   0.000   0.000   0.000
   2    0.000   0.000   0.000   0.000 130.995 130.832 130.798 130.858 130.672 130.577 130.619 130.865   0.000   0.000   0.000
   3    0.000   0.000   0.000 130.466 130.437 130.291 130.210 130.186 130.106 130.096 130.206 130.397   0.000   0.000   0.000
   4    0.000   0.000   0.000 129.773 129.684 129.559 129.469 129.421 129.392 129.433 129.577 129.799   0.000   0.000   0.000
   5    0.000   0.000 128.871 128.939 128.849 128.737 128.648 128.595 128.578 128.618 128.720 128.826 128.680   0.000   0.000
   6    0.000   0.000 128.128 128.074 127.973 127.867 127.780 127.723 127.702 127.723 127.782 127.847 127.832 127.670   0.000
   7    0.000 127.126 127.239 127.180 127.079 126.976 126.888 126.825 126.794 126.796 126.824 126.859 126.869 126.844   0.000
   8    0.000 126.362 126.358 126.288 126.187 126.080 125.986 125.917 125.877 125.867 125.878 125.892 125.886 125.851   0.000
   9  125.125 125.454 125.497 125.428 125.315 125.194 125.088 125.010 124.966 124.955 124.965 124.978 124.955 124.829 124.408
  10  124.819 124.824 124.757 124.632 124.479 124.327 124.198 124.108 124.065 124.066 124.101 124.148 124.178 124.151 124.051
  11  124.538 124.290 124.103 123.896 123.678 123.475 123.312 123.207 123.168 123.196 123.279 123.396 123.516 123.610 123.660
  12    0.000 123.723 123.504 123.208 122.904 122.630 122.417 122.289 122.259 122.330 122.485 122.699 122.941 123.173 123.386
  13    0.000 123.376 123.002 122.564 122.142 121.772 121.488 121.326 121.308 121.436 121.690 122.032 122.424 122.789   0.000
  14    0.000 123.275 122.541 121.929 121.370 120.876 120.491 120.272 120.266 120.476 120.860 121.357 121.929 122.666   0.000
  15    0.000   0.000 121.824 121.238 120.565 119.917 119.376 119.059 119.062 119.392 119.961 120.614 121.149   0.000   0.000
  16    0.000   0.000 121.534 120.598 119.757 118.891 118.080 117.572 117.577 118.113 119.003 119.954 120.744   0.000   0.000
  17    0.000   0.000   0.000 119.724 118.966 117.834 116.511 115.608 115.593 116.507 117.964 119.287 120.435   0.000   0.000
  18    0.000   0.000   0.000 119.444 118.508 116.968 114.517 112.760 112.693 114.357 116.990 118.488   0.000   0.000   0.000
  19    0.000   0.000   0.000   0.000   0.000   0.000 111.689 108.166 108.034 111.207   0.000   0.000   0.000   0.000   0.000
  20    0.000   0.000   0.000   0.000   0.000   0.000   0.000 100.000 100.000   0.000   0.000   0.000   0.000   0.000   0.000

 HEAD WILL BE SAVED ON UNIT   35 AT END OF TIME STEP    60 IN STRESS PERIOD      3



  -------------------------------------------------------------------------------------
  VOLUMETRIC BUDGET FOR ENTIRE MODEL AT END OF TIME STEP   60 IN STRESS PERIOD      3
  -------------------------------------------------------------------------------------

     CUMULATIVE VOLUMES      L**3       RATES FOR THIS TIME STEP      L**3/T
     ------------------                 ------------------------

           IN:                                      IN:
           ---                                      ---
             STORAGE =  3328555268.2330               STORAGE =         574.9955
       CONSTANT HEAD =           0.0000         CONSTANT HEAD =           0.0000
               WELLS =  1735707600.0000                 WELLS =       39600.0000
    INTERBED STORAGE =    29052468.8596      INTERBED STORAGE =           3.6377

            TOTAL IN =  5093315337.0925              TOTAL IN =       40178.6332

          OUT:                                     OUT:
          ----                                     ----
             STORAGE =   614970031.4968               STORAGE =       13693.0230
       CONSTANT HEAD =  1318671406.5372         CONSTANT HEAD =       26399.6661
               WELLS =  3155760000.0000                 WELLS =           0.0000
    INTERBED STORAGE =     3927468.0888      INTERBED STORAGE =          86.0419

           TOTAL OUT =  5093328906.1229             TOTAL OUT =       40178.7310

            IN - OUT =      -13569.0303              IN - OUT =      -9.7793E-02

 PERCENT DISCREPANCY =          -0.00     PERCENT DISCREPANCY =          -0.00


          TIME SUMMARY AT END OF TIME STEP    60 IN STRESS PERIOD      3
                    SECONDS     MINUTES      HOURS       DAYS        YEARS
                    -----------------------------------------------------------
   TIME STEP LENGTH 3.15576E+07 5.25960E+05  8766.0      365.25      1.0000    
 STRESS PERIOD TIME 1.89346E+09 3.15576E+07 5.25960E+05  21915.      60.000    
         TOTAL TIME 3.78700E+09 6.31166E+07 1.05194E+06  43831.      120.00    
 
 The following subsidence array is the sum of compaction values for all systems of interbeds:
1
        SUBSIDENCE IN LAYER   1 AT END OF TIME STEP  60 IN STRESS PERIOD    3
  ---------------------------------------------------------------------------

         1     2     3     4     5     6     7     8     9    10    11    12    13    14    15
 .............................................................................................
   1  0.000 0.000 0.000 0.000 0.000 0.026 0.026 0.026 0.026 0.026 0.000 0.000 0.000 0.000 0.000
   2  0.000 0.000 0.000 0.000 0.026 0.026 0.026 0.026 0.026 0.026 0.026 0.026 0.000 0.000 0.000
   3  0.000 0.000 0.000 0.026 0.026 0.026 0.026 0.026 0.026 0.026 0.026 0.026 0.000 0.000 0.000
   4  0.000 0.000 0.000 0.026 0.026 0.025 0.026 0.026 0.026 0.026 0.026 0.026 0.000 0.000 0.000
   5  0.000 0.000 0.026 0.025 0.025 0.025 0.025 0.025 0.025 0.026 0.026 0.026 0.026 0.000 0.000
   6  0.000 0.000 0.025 0.025 0.025 0.025 0.025 0.025 0.025 0.025 0.026 0.026 0.026 0.026 0.000
   7  0.000 0.025 0.025 0.025 0.025 0.025 0.025 0.025 0.025 0.025 0.025 0.025 0.026 0.026 0.000
   8  0.000 0.025 0.025 0.025 0.024 0.024 0.025 0.025 0.025 0.073 0.025 0.025 0.025 0.025 0.000
   9  0.024 0.024 0.024 0.024 0.024 0.024 0.024 0.024 0.120 0.571 0.086 0.025 0.025 0.025 0.025
  10  0.024 0.024 0.024 0.024 0.024 0.024 0.024 0.024 0.047 0.129 0.024 0.024 0.024 0.024 0.025
  11  0.024 0.024 0.023 0.023 0.023 0.023 0.092 0.046 0.023 0.023 0.023 0.024 0.024 0.024 0.024
  12  0.000 0.023 0.023 0.023 0.022 0.067 0.448 0.091 0.022 0.022 0.023 0.023 0.023 0.024 0.024
  13  0.000 0.023 0.022 0.022 0.022 0.021 0.064 0.021 0.021 0.021 0.022 0.022 0.022 0.023 0.000
  14  0.000 0.022 0.022 0.021 0.021 0.020 0.020 0.020 0.020 0.020 0.021 0.021 0.022 0.023 0.000
  15  0.000 0.000 0.021 0.020 0.020 0.019 0.019 0.018 0.018 0.019 0.019 0.020 0.020 0.000 0.000
  16  0.000 0.000 0.020 0.019 0.019 0.018 0.017 0.017 0.017 0.017 0.018 0.019 0.019 0.000 0.000
  17  0.000 0.000 0.000 0.018 0.018 0.017 0.015 0.014 0.014 0.015 0.017 0.018 0.019 0.000 0.000
  18  0.000 0.000 0.000 0.018 0.017 0.015 0.013 0.011 0.011 0.013 0.015 0.017 0.000 0.000 0.000
  19  0.000 0.000 0.000 0.000 0.000 0.000 0.010 0.007 0.007 0.010 0.000 0.000 0.000 0.000 0.000
  20  0.000 0.000 0.000 0.000 0.000 0.000 0.000 0.000 0.000 0.000 0.000 0.000 0.000 0.000 0.000
1
  LAYER COMPACTION IN LAYER   1 AT END OF TIME STEP  60 IN STRESS PERIOD    3
  ---------------------------------------------------------------------------

         1     2     3     4     5     6     7     8     9    10    11    12    13    14    15
 .............................................................................................
   1  .0000 .0000 .0000 .0000 .0000 .0112 .0113 .0115 .0113 .0112 .0000 .0000 .0000 .0000 .0000
   2  .0000 .0000 .0000 .0000 .0114 .0112 .0112 .0114 .0112 .0112 .0113 .0116 .0000 .0000 .0000
   3  .0000 .0000 .0000 .0113 .0111 .0110 .0110 .0111 .0111 .0111 .0112 .0113 .0000 .0000 .0000
   4  .0000 .0000 .0000 .0109 .0109 .0108 .0108 .0108 .0109 .0109 .0111 .0113 .0000 .0000 .0000
   5  .0000 .0000 .0109 .0107 .0106 .0106 .0106 .0106 .0107 .0107 .0108 .0110 .0112 .0000 .0000
   6  .0000 .0000 .0105 .0104 .0104 .0104 .0104 .0104 .0104 .0105 .0106 .0107 .0108 .0109 .0000
   7  .0000 .0104 .0102 .0102 .0101 .0101 .0101 .0102 .0102 .0102 .0103 .0104 .0105 .0105 .0000
   8  .0000 .0100 .0099 .0099 .0099 .0099 .0099 .0099 .0099 .0324 .0100 .0101 .0102 .0102 .0000
   9  .0096 .0096 .0096 .0096 .0096 .0096 .0095 .0095 .0498 .2023 .0373 .0098 .0098 .0099 .0098
  10  .0094 .0094 .0094 .0093 .0093 .0092 .0092 .0092 .0189 .0520 .0094 .0095 .0095 .0096 .0096
  11  .0093 .0092 .0091 .0090 .0089 .0088 .0088 .0088 .0088 .0089 .0090 .0091 .0092 .0093 .0094
  12  .0000 .0089 .0088 .0087 .0085 .0084 .0375 .0083 .0084 .0084 .0086 .0087 .0089 .0091 .0093
  13  .0000 .0087 .0085 .0083 .0081 .0080 .0078 .0078 .0078 .0079 .0081 .0083 .0085 .0088 .0000
  14  .0000 .0087 .0082 .0079 .0077 .0075 .0073 .0072 .0072 .0074 .0076 .0078 .0081 .0087 .0000
  15  .0000 .0000 .0078 .0075 .0072 .0069 .0067 .0065 .0065 .0067 .0070 .0073 .0075 .0000 .0000
  16  .0000 .0000 .0076 .0071 .0067 .0063 .0059 .0057 .0057 .0060 .0063 .0068 .0072 .0000 .0000
  17  .0000 .0000 .0000 .0066 .0062 .0057 .0051 .0047 .0047 .0051 .0057 .0063 .0069 .0000 .0000
  18  .0000 .0000 .0000 .0064 .0060 .0052 .0042 .0035 .0035 .0041 .0052 .0059 .0000 .0000 .0000
  19  .0000 .0000 .0000 .0000 .0000 .0000 .0030 .0019 .0019 .0029 .0000 .0000 .0000 .0000 .0000
  20  .0000 .0000 .0000 .0000 .0000 .0000 .0000 .0000 .0000 .0000 .0000 .0000 .0000 .0000 .0000
1
  LAYER COMPACTION IN LAYER   2 AT END OF TIME STEP  60 IN STRESS PERIOD    3
  ---------------------------------------------------------------------------

         1     2     3     4     5     6     7     8     9    10    11    12    13    14    15
 .............................................................................................
   1  .0000 .0000 .0000 .0000 .0000 .0071 .0072 .0072 .0072 .0072 .0000 .0000 .0000 .0000 .0000
   2  .0000 .0000 .0000 .0000 .0072 .0072 .0072 .0072 .0072 .0072 .0072 .0073 .0000 .0000 .0000
   3  .0000 .0000 .0000 .0072 .0072 .0072 .0072 .0072 .0072 .0072 .0073 .0073 .0000 .0000 .0000
   4  .0000 .0000 .0000 .0072 .0072 .0072 .0072 .0072 .0072 .0073 .0073 .0073 .0000 .0000 .0000
   5  .0000 .0000 .0072 .0072 .0072 .0072 .0072 .0072 .0072 .0073 .0073 .0073 .0074 .0000 .0000
   6  .0000 .0000 .0072 .0072 .0072 .0072 .0072 .0072 .0073 .0073 .0073 .0074 .0074 .0074 .0000
   7  .0000 .0072 .0072 .0072 .0072 .0072 .0072 .0072 .0072 .0073 .0073 .0074 .0074 .0074 .0000
   8  .0000 .0071 .0071 .0071 .0071 .0071 .0072 .0072 .0072 .0331 .0073 .0073 .0074 .0074 .0000
   9  .0071 .0071 .0071 .0071 .0071 .0071 .0071 .0071 .0544 .2993 .0395 .0073 .0073 .0073 .0073
  10  .0071 .0071 .0070 .0070 .0070 .0070 .0070 .0070 .0187 .0585 .0072 .0072 .0072 .0073 .0073
  11  .0070 .0070 .0070 .0069 .0069 .0069 .0069 .0069 .0069 .0070 .0070 .0071 .0071 .0072 .0072
  12  .0000 .0069 .0068 .0068 .0068 .0067 .0485 .0067 .0067 .0068 .0068 .0069 .0070 .0071 .0072
  13  .0000 .0068 .0067 .0066 .0066 .0065 .0065 .0065 .0065 .0065 .0066 .0067 .0068 .0069 .0000
  14  .0000 .0067 .0066 .0065 .0064 .0063 .0062 .0062 .0062 .0062 .0063 .0064 .0066 .0068 .0000
  15  .0000 .0000 .0063 .0062 .0061 .0060 .0059 .0058 .0058 .0059 .0060 .0061 .0062 .0000 .0000
  16  .0000 .0000 .0062 .0060 .0058 .0056 .0054 .0053 .0053 .0054 .0056 .0058 .0059 .0000 .0000
  17  .0000 .0000 .0000 .0057 .0056 .0053 .0049 .0047 .0047 .0049 .0052 .0055 .0057 .0000 .0000
  18  .0000 .0000 .0000 .0056 .0054 .0050 .0042 .0037 .0037 .0042 .0049 .0052 .0000 .0000 .0000
  19  .0000 .0000 .0000 .0000 .0000 .0000 .0033 .0024 .0023 .0033 .0000 .0000 .0000 .0000 .0000
  20  .0000 .0000 .0000 .0000 .0000 .0000 .0000 .0000 .0000 .0000 .0000 .0000 .0000 .0000 .0000
1
  LAYER COMPACTION IN LAYER   3 AT END OF TIME STEP  60 IN STRESS PERIOD    3
  ---------------------------------------------------------------------------

         1     2     3     4     5     6     7     8     9    10    11    12    13    14    15
 .............................................................................................
   1  .0000 .0000 .0000 .0000 .0000 .0033 .0033 .0033 .0033 .0033 .0000 .0000 .0000 .0000 .0000
   2  .0000 .0000 .0000 .0000 .0033 .0033 .0033 .0033 .0033 .0033 .0034 .0034 .0000 .0000 .0000
   3  .0000 .0000 .0000 .0033 .0033 .0033 .0033 .0033 .0033 .0034 .0034 .0034 .0000 .0000 .0000
   4  .0000 .0000 .0000 .0033 .0033 .0033 .0033 .0033 .0034 .0034 .0034 .0034 .0000 .0000 .0000
   5  .0000 .0000 .0033 .0033 .0033 .0033 .0033 .0034 .0034 .0034 .0034 .0034 .0034 .0000 .0000
   6  .0000 .0000 .0033 .0033 .0033 .0033 .0033 .0034 .0034 .0034 .0034 .0034 .0034 .0034 .0000
   7  .0000 .0033 .0033 .0033 .0033 .0033 .0033 .0034 .0034 .0034 .0034 .0034 .0034 .0034 .0000
   8  .0000 .0033 .0033 .0033 .0033 .0033 .0033 .0033 .0034 .0034 .0034 .0034 .0034 .0034 .0000
   9  .0033 .0033 .0033 .0033 .0033 .0033 .0033 .0033 .0121 .0648 .0048 .0034 .0034 .0034 .0034
  10  .0033 .0033 .0033 .0033 .0033 .0033 .0033 .0033 .0056 .0140 .0033 .0033 .0034 .0034 .0034
  11  .0033 .0033 .0032 .0032 .0032 .0032 .0223 .0086 .0032 .0032 .0033 .0033 .0033 .0033 .0034
  12  .0000 .0032 .0032 .0032 .0032 .0116 .1084 .0221 .0031 .0032 .0032 .0032 .0033 .0033 .0033
  13  .0000 .0032 .0031 .0031 .0031 .0031 .0104 .0030 .0030 .0031 .0031 .0031 .0032 .0032 .0000
  14  .0000 .0031 .0031 .0030 .0030 .0029 .0029 .0029 .0029 .0029 .0030 .0030 .0031 .0031 .0000
  15  .0000 .0000 .0030 .0029 .0029 .0028 .0027 .0027 .0027 .0028 .0028 .0029 .0029 .0000 .0000
  16  .0000 .0000 .0029 .0028 .0027 .0026 .0025 .0025 .0025 .0025 .0026 .0027 .0028 .0000 .0000
  17  .0000 .0000 .0000 .0027 .0026 .0025 .0023 .0022 .0022 .0023 .0025 .0026 .0027 .0000 .0000
  18  .0000 .0000 .0000 .0026 .0025 .0023 .0020 .0018 .0018 .0020 .0023 .0024 .0000 .0000 .0000
  19  .0000 .0000 .0000 .0000 .0000 .0000 .0016 .0011 .0011 .0015 .0000 .0000 .0000 .0000 .0000
  20  .0000 .0000 .0000 .0000 .0000 .0000 .0000 .0000 .0000 .0000 .0000 .0000 .0000 .0000 .0000
1
  LAYER COMPACTION IN LAYER   4 AT END OF TIME STEP  60 IN STRESS PERIOD    3
  ---------------------------------------------------------------------------

         1     2     3     4     5     6     7     8     9    10    11    12    13    14    15
 .............................................................................................
   1  .0000 .0000 .0000 .0000 .0000 .0041 .0042 .0042 .0042 .0042 .0000 .0000 .0000 .0000 .0000
   2  .0000 .0000 .0000 .0000 .0042 .0042 .0042 .0042 .0042 .0042 .0042 .0042 .0000 .0000 .0000
   3  .0000 .0000 .0000 .0042 .0042 .0042 .0042 .0042 .0042 .0042 .0042 .0042 .0000 .0000 .0000
   4  .0000 .0000 .0000 .0042 .0042 .0042 .0042 .0042 .0042 .0042 .0042 .0042 .0000 .0000 .0000
   5  .0000 .0000 .0042 .0042 .0042 .0042 .0042 .0042 .0042 .0042 .0042 .0043 .0043 .0000 .0000
   6  .0000 .0000 .0042 .0042 .0042 .0042 .0042 .0042 .0042 .0042 .0042 .0043 .0043 .0043 .0000
   7  .0000 .0042 .0042 .0042 .0042 .0042 .0042 .0042 .0042 .0042 .0043 .0043 .0043 .0043 .0000
   8  .0000 .0042 .0042 .0042 .0042 .0042 .0042 .0042 .0042 .0042 .0042 .0043 .0043 .0043 .0000
   9  .0041 .0041 .0041 .0041 .0041 .0041 .0041 .0042 .0042 .0042 .0042 .0042 .0043 .0043 .0043
  10  .0041 .0041 .0041 .0041 .0041 .0041 .0041 .0041 .0041 .0041 .0042 .0042 .0042 .0042 .0042
  11  .0041 .0041 .0041 .0040 .0040 .0040 .0539 .0217 .0040 .0041 .0041 .0041 .0042 .0042 .0042
  12  .0000 .0040 .0040 .0040 .0040 .0407 .2534 .0535 .0039 .0040 .0040 .0040 .0041 .0041 .0042
  13  .0000 .0039 .0039 .0039 .0039 .0038 .0389 .0038 .0038 .0038 .0039 .0039 .0040 .0040 .0000
  14  .0000 .0039 .0038 .0038 .0037 .0037 .0037 .0036 .0036 .0037 .0037 .0038 .0038 .0039 .0000
  15  .0000 .0000 .0037 .0037 .0036 .0035 .0034 .0034 .0034 .0035 .0035 .0036 .0036 .0000 .0000
  16  .0000 .0000 .0036 .0035 .0034 .0033 .0032 .0031 .0031 .0032 .0033 .0034 .0035 .0000 .0000
  17  .0000 .0000 .0000 .0034 .0033 .0031 .0029 .0028 .0027 .0029 .0031 .0032 .0034 .0000 .0000
  18  .0000 .0000 .0000 .0033 .0032 .0029 .0025 .0022 .0022 .0025 .0029 .0031 .0000 .0000 .0000
  19  .0000 .0000 .0000 .0000 .0000 .0000 .0020 .0014 .0014 .0019 .0000 .0000 .0000 .0000 .0000
  20  .0000 .0000 .0000 .0000 .0000 .0000 .0000 .0000 .0000 .0000 .0000 .0000 .0000 .0000 .0000
1
  PRECONSOL STRESS IN LAYER   1 AT END OF TIME STEP  60 IN STRESS PERIOD    3
  ---------------------------------------------------------------------------

           1       2       3       4       5       6       7       8       9      10      11      12      13      14      15
 ...........................................................................................................................
   1      0.0     0.0     0.0     0.0     0.0   120.3   120.2   119.7   120.2   120.4     0.0     0.0     0.0     0.0     0.0
   2      0.0     0.0     0.0     0.0   119.8   120.4   120.4   120.0   120.4   120.5   120.4   119.8     0.0     0.0     0.0
   3      0.0     0.0     0.0   120.1   120.5   120.8   120.8   120.8   120.9   120.9   120.7   120.4     0.0     0.0     0.0
   4      0.0     0.0     0.0   121.0   121.2   121.3   121.4   121.4   121.4   121.3   121.1   120.5     0.0     0.0     0.0
   5      0.0     0.0   121.2   121.6   121.8   121.9   121.9   121.9   121.9   121.9   121.7   121.5   121.1     0.0     0.0
   6      0.0     0.0   122.2   122.3   122.4   122.5   122.5   122.5   122.5   122.5   122.4   122.2   122.1   121.8     0.0
   7      0.0   122.4   122.8   122.9   123.0   123.1   123.1   123.2   123.1   123.1   123.0   123.0   122.9   122.8     0.0
   8      0.0   123.4   123.5   123.6   123.7   123.7   123.8   123.8   123.8   125.0   123.7   123.7   123.6   123.6     0.0
   9    124.4   124.2   124.2   124.2   124.3   124.4   124.5   124.5   126.8   138.6   126.0   124.3   124.3   124.4   124.7
  10    124.7   124.7   124.7   124.8   125.0   125.1   125.2   125.2   125.8   127.7   125.1   125.0   124.9   124.9   125.0
  11    124.9   125.1   125.3   125.4   125.6   125.8   125.9   126.0   126.0   125.9   125.8   125.6   125.5   125.4   125.3
  12      0.0   125.6   125.8   126.1   126.3   126.5   128.5   126.8   126.8   126.7   126.5   126.3   126.0   125.8   125.5
  13      0.0   125.9   126.3   126.6   127.0   127.3   127.6   127.7   127.7   127.5   127.3   127.0   126.5   126.1     0.0
  14      0.0   125.6   126.7   127.3   127.8   128.2   128.6   128.7   128.7   128.5   128.2   127.7   127.1   125.9     0.0
  15      0.0     0.0   127.4   128.0   128.6   129.2   129.7   130.0   130.0   129.7   129.1   128.5   127.9     0.0     0.0
  16      0.0     0.0   127.3   128.6   129.4   130.3   131.1   131.5   131.5   131.0   130.2   129.2   128.1     0.0     0.0
  17      0.0     0.0     0.0   129.5   130.3   131.4   132.7   133.6   133.6   132.7   131.3   129.9   128.4     0.0     0.0
  18      0.0     0.0     0.0   129.4   130.7   132.3   134.7   136.6   136.6   134.9   132.3   130.4     0.0     0.0     0.0
  19      0.0     0.0     0.0     0.0     0.0     0.0   137.3   141.3   141.5   138.2     0.0     0.0     0.0     0.0     0.0
  20      0.0     0.0     0.0     0.0     0.0     0.0     0.0     0.0     0.0     0.0     0.0     0.0     0.0     0.0     0.0
1
  PRECONSOL STRESS IN LAYER   2 AT END OF TIME STEP  60 IN STRESS PERIOD    3
  ---------------------------------------------------------------------------

           1       2       3       4       5       6       7       8       9      10      11      12      13      14      15
 ...........................................................................................................................
   1      0.0     0.0     0.0     0.0     0.0   270.3   270.2   269.8   270.2   270.4     0.0     0.0     0.0     0.0     0.0
   2      0.0     0.0     0.0     0.0   269.9   270.4   270.4   270.1   270.5   270.6   270.4   269.9     0.0     0.0     0.0
   3      0.0     0.0     0.0   270.3   270.6   270.8   270.8   270.8   270.9   270.9   270.7   270.4     0.0     0.0     0.0
   4      0.0     0.0     0.0   271.1   271.2   271.3   271.4   271.4   271.4   271.3   271.1   270.6     0.0     0.0     0.0
   5      0.0     0.0   271.4   271.6   271.8   271.9   271.9   271.9   271.9   271.9   271.7   271.5   271.2     0.0     0.0
   6      0.0     0.0   272.2   272.3   272.4   272.5   272.5   272.5   272.5   272.5   272.4   272.2   272.1   271.9     0.0
   7      0.0   272.6   272.8   272.9   273.0   273.1   273.1   273.2   273.1   273.1   273.0   273.0   272.9   272.8     0.0
   8      0.0   273.4   273.5   273.6   273.7   273.7   273.8   273.8   273.8   275.1   273.7   273.7   273.6   273.6     0.0
   9    274.4   274.2   274.2   274.2   274.3   274.4   274.5   274.5   276.8   289.5   276.0   274.3   274.3   274.4   274.7
  10    274.7   274.7   274.7   274.8   275.0   275.1   275.2   275.2   275.8   277.7   275.1   275.0   274.9   274.9   275.0
  11    274.9   275.1   275.3   275.5   275.6   275.8   275.9   276.0   276.0   275.9   275.8   275.6   275.5   275.4   275.3
  12      0.0   275.6   275.8   276.1   276.3   276.5   278.8   276.8   276.8   276.7   276.5   276.3   276.0   275.8   275.5
  13      0.0   275.9   276.3   276.7   277.0   277.3   277.6   277.7   277.7   277.5   277.3   277.0   276.6   276.1     0.0
  14      0.0   275.7   276.7   277.3   277.8   278.2   278.6   278.7   278.7   278.5   278.2   277.7   277.1   276.0     0.0
  15      0.0     0.0   277.4   278.0   278.6   279.2   279.7   280.0   280.0   279.7   279.1   278.5   277.9     0.0     0.0
  16      0.0     0.0   277.4   278.6   279.4   280.3   281.1   281.5   281.5   281.0   280.2   279.2   278.2     0.0     0.0
  17      0.0     0.0     0.0   279.5   280.3   281.4   282.7   283.6   283.6   282.7   281.3   279.9   278.5     0.0     0.0
  18      0.0     0.0     0.0   279.5   280.7   282.3   284.7   286.6   286.6   285.0   282.3   280.5     0.0     0.0     0.0
  19      0.0     0.0     0.0     0.0     0.0     0.0   287.4   291.3   291.5   288.2     0.0     0.0     0.0     0.0     0.0
  20      0.0     0.0     0.0     0.0     0.0     0.0     0.0     0.0     0.0     0.0     0.0     0.0     0.0     0.0     0.0
1
  PRECONSOL STRESS IN LAYER   3 AT END OF TIME STEP  60 IN STRESS PERIOD    3
  ---------------------------------------------------------------------------

           1       2       3       4       5       6       7       8       9      10      11      12      13      14      15
 ...........................................................................................................................
   1      0.0     0.0     0.0     0.0     0.0   320.4   320.3   320.1   320.3   320.5     0.0     0.0     0.0     0.0     0.0
   2      0.0     0.0     0.0     0.0   320.3   320.5   320.5   320.4   320.5   320.6   320.5   320.3     0.0     0.0     0.0
   3      0.0     0.0     0.0   320.6   320.7   320.8   320.9   320.9   320.9   320.9   320.8   320.6     0.0     0.0     0.0
   4      0.0     0.0     0.0   321.2   321.2   321.3   321.4   321.4   321.4   321.3   321.2   321.0     0.0     0.0     0.0
   5      0.0     0.0   321.7   321.7   321.8   321.9   321.9   322.0   321.9   321.9   321.8   321.6   321.6     0.0     0.0
   6      0.0     0.0   322.3   322.3   322.4   322.5   322.5   322.5   322.5   322.5   322.4   322.3   322.2   322.3     0.0
   7      0.0   322.9   322.9   323.0   323.0   323.1   323.1   323.2   323.1   323.1   323.1   323.0   322.9   322.9     0.0
   8      0.0   323.5   323.5   323.6   323.7   323.7   323.8   323.8   323.8   323.8   323.7   323.7   323.6   323.6     0.0
   9    324.4   324.2   324.2   324.2   324.3   324.4   324.5   324.5   325.4   330.9   324.6   324.4   324.3   324.4   324.7
  10    324.7   324.7   324.7   324.8   325.0   325.1   325.2   325.2   325.4   326.3   325.1   325.0   324.9   324.9   325.0
  11    324.9   325.1   325.3   325.5   325.6   325.8   327.9   326.5   326.0   325.9   325.8   325.6   325.5   325.4   325.3
  12      0.0   325.6   325.8   326.1   326.3   327.4   338.0   328.8   326.8   326.7   326.5   326.3   326.0   325.8   325.5
  13      0.0   326.0   326.3   326.7   327.0   327.3   328.3   327.7   327.7   327.5   327.3   327.0   326.6   326.2     0.0
  14      0.0   326.1   326.8   327.3   327.8   328.2   328.6   328.7   328.7   328.5   328.2   327.7   327.2   326.4     0.0
  15      0.0     0.0   327.5   328.0   328.6   329.2   329.7   330.0   330.0   329.7   329.1   328.5   328.1     0.0     0.0
  16      0.0     0.0   327.8   328.7   329.5   330.3   331.1   331.6   331.6   331.0   330.2   329.3   328.6     0.0     0.0
  17      0.0     0.0     0.0   329.6   330.3   331.4   332.7   333.6   333.7   332.8   331.3   330.1   329.0     0.0     0.0
  18      0.0     0.0     0.0   329.9   330.8   332.3   334.8   336.6   336.7   335.0   332.4   330.9     0.0     0.0     0.0
  19      0.0     0.0     0.0     0.0     0.0     0.0   337.8   341.4   341.6   338.3     0.0     0.0     0.0     0.0     0.0
  20      0.0     0.0     0.0     0.0     0.0     0.0     0.0     0.0     0.0     0.0     0.0     0.0     0.0     0.0     0.0
1
  PRECONSOL STRESS IN LAYER   4 AT END OF TIME STEP  60 IN STRESS PERIOD    3
  ---------------------------------------------------------------------------

           1       2       3       4       5       6       7       8       9      10      11      12      13      14      15
 ...........................................................................................................................
   1      0.0     0.0     0.0     0.0     0.0   520.4   520.4   520.5   520.5   520.5     0.0     0.0     0.0     0.0     0.0
   2      0.0     0.0     0.0     0.0   520.7   520.6   520.6   520.7   520.6   520.6   520.6   520.6     0.0     0.0     0.0
   3      0.0     0.0     0.0   521.0   520.9   520.9   520.9   521.0   521.0   520.9   520.9   520.8     0.0     0.0     0.0
   4      0.0     0.0     0.0   521.3   521.3   521.4   521.4   521.4   521.4   521.4   521.3   521.3     0.0     0.0     0.0
   5      0.0     0.0   522.1   521.8   521.9   521.9   521.9   522.0   521.9   521.9   521.8   521.8   522.0     0.0     0.0
   6      0.0     0.0   522.4   522.4   522.4   522.5   522.5   522.5   522.5   522.5   522.4   522.4   522.4   522.6     0.0
   7      0.0   523.3   523.0   523.0   523.0   523.1   523.1   523.2   523.2   523.1   523.1   523.0   523.0   523.0     0.0
   8      0.0   523.6   523.6   523.6   523.7   523.7   523.8   523.8   523.8   523.8   523.7   523.7   523.7   523.7     0.0
   9    524.4   524.2   524.2   524.2   524.3   524.4   524.5   524.5   524.5   524.5   524.4   524.4   524.3   524.4   524.7
  10    524.7   524.7   524.8   524.9   525.0   525.1   525.2   525.2   525.2   525.2   525.1   525.0   524.9   524.9   525.0
  11    524.9   525.1   525.3   525.5   525.6   525.8   530.0   527.4   526.0   525.9   525.8   525.6   525.5   525.4   525.3
  12      0.0   525.6   525.8   526.1   526.3   529.6   547.4   530.9   526.8   526.7   526.5   526.3   526.0   525.8   525.5
  13      0.0   526.1   526.3   526.7   527.0   527.3   530.5   527.7   527.7   527.6   527.3   527.0   526.6   526.3     0.0
  14      0.0   526.4   526.9   527.3   527.8   528.2   528.6   528.8   528.7   528.5   528.2   527.7   527.3   526.7     0.0
  15      0.0     0.0   527.6   528.1   528.6   529.2   529.7   530.0   530.0   529.7   529.2   528.6   528.2     0.0     0.0
  16      0.0     0.0   528.1   528.8   529.5   530.3   531.1   531.6   531.6   531.1   530.3   529.4   529.0     0.0     0.0
  17      0.0     0.0     0.0   529.7   530.4   531.4   532.8   533.7   533.7   532.8   531.4   530.3   529.4     0.0     0.0
  18      0.0     0.0     0.0   530.3   530.9   532.4   535.0   536.7   536.8   535.1   532.5   531.3     0.0     0.0     0.0
  19      0.0     0.0     0.0     0.0     0.0     0.0   538.2   541.6   541.7   538.3     0.0     0.0     0.0     0.0     0.0
  20      0.0     0.0     0.0     0.0     0.0     0.0     0.0     0.0     0.0     0.0     0.0     0.0     0.0     0.0     0.0
1
  CHANGE IN PCSTRS IN LAYER   1 AT END OF TIME STEP  60 IN STRESS PERIOD    3
  ---------------------------------------------------------------------------

         1     2     3     4     5     6     7     8     9    10    11    12    13    14    15
 .............................................................................................
   1   0.00  0.00  0.00  0.00  0.00  0.00  0.00  0.00  0.00  0.00  0.00  0.00  0.00  0.00  0.00
   2   0.00  0.00  0.00  0.00  0.00  0.00  0.00  0.00  0.00  0.00  0.00  0.00  0.00  0.00  0.00
   3   0.00  0.00  0.00  0.00  0.00  0.00  0.00  0.00  0.00  0.00  0.00  0.00  0.00  0.00  0.00
   4   0.00  0.00  0.00  0.00  0.00  0.00  0.00  0.00  0.00  0.00  0.00  0.00  0.00  0.00  0.00
   5   0.00  0.00  0.00  0.00  0.00  0.00  0.00  0.00  0.00  0.00  0.00  0.00  0.00  0.00  0.00
   6   0.00  0.00  0.00  0.00  0.00  0.00  0.00  0.00  0.00  0.00  0.00  0.00  0.00  0.00  0.00
   7   0.00  0.00  0.00  0.00  0.00  0.00  0.00  0.00  0.00  0.00  0.00  0.00  0.00  0.00  0.00
   8   0.00  0.00  0.00  0.00  0.00  0.00  0.00  0.00  0.00  1.23  0.00  0.00  0.00  0.00  0.00
   9   0.00  0.00  0.00  0.00  0.00  0.00  0.00  0.00  2.32 14.10  1.56  0.00  0.00  0.00  0.00
  10   0.00  0.00  0.00  0.00  0.00  0.00  0.00  0.00  0.56  2.55  0.00  0.00  0.00  0.00  0.00
  11   0.00  0.00  0.00  0.00  0.00  0.00  0.00  0.00  0.00  0.00  0.00  0.00  0.00  0.00  0.00
  12   0.00  0.00  0.00  0.00  0.00  0.00  1.83  0.00  0.00  0.00  0.00  0.00  0.00  0.00  0.00
  13   0.00  0.00  0.00  0.00  0.00  0.00  0.00  0.00  0.00  0.00  0.00  0.00  0.00  0.00  0.00
  14   0.00  0.00  0.00  0.00  0.00  0.00  0.00  0.00  0.00  0.00  0.00  0.00  0.00  0.00  0.00
  15   0.00  0.00  0.00  0.00  0.00  0.00  0.00  0.00  0.00  0.00  0.00  0.00  0.00  0.00  0.00
  16   0.00  0.00  0.00  0.00  0.00  0.00  0.00  0.00  0.00  0.00  0.00  0.00  0.00  0.00  0.00
  17   0.00  0.00  0.00  0.00  0.00  0.00  0.00  0.00  0.00  0.00  0.00  0.00  0.00  0.00  0.00
  18   0.00  0.00  0.00  0.00  0.00  0.00  0.00  0.00  0.00  0.00  0.00  0.00  0.00  0.00  0.00
  19   0.00  0.00  0.00  0.00  0.00  0.00  0.00  0.00  0.00  0.00  0.00  0.00  0.00  0.00  0.00
  20   0.00  0.00  0.00  0.00  0.00  0.00  0.00  0.00  0.00  0.00  0.00  0.00  0.00  0.00  0.00
1
  CHANGE IN PCSTRS IN LAYER   2 AT END OF TIME STEP  60 IN STRESS PERIOD    3
  ---------------------------------------------------------------------------

         1     2     3     4     5     6     7     8     9    10    11    12    13    14    15
 .............................................................................................
   1   0.00  0.00  0.00  0.00  0.00  0.00  0.00  0.00  0.00  0.00  0.00  0.00  0.00  0.00  0.00
   2   0.00  0.00  0.00  0.00  0.00  0.00  0.00  0.00  0.00  0.00  0.00  0.00  0.00  0.00  0.00
   3   0.00  0.00  0.00  0.00  0.00  0.00  0.00  0.00  0.00  0.00  0.00  0.00  0.00  0.00  0.00
   4   0.00  0.00  0.00  0.00  0.00  0.00  0.00  0.00  0.00  0.00  0.00  0.00  0.00  0.00  0.00
   5   0.00  0.00  0.00  0.00  0.00  0.00  0.00  0.00  0.00  0.00  0.00  0.00  0.00  0.00  0.00
   6   0.00  0.00  0.00  0.00  0.00  0.00  0.00  0.00  0.00  0.00  0.00  0.00  0.00  0.00  0.00
   7   0.00  0.00  0.00  0.00  0.00  0.00  0.00  0.00  0.00  0.00  0.00  0.00  0.00  0.00  0.00
   8   0.00  0.00  0.00  0.00  0.00  0.00  0.00  0.00  0.00  1.28  0.00  0.00  0.00  0.00  0.00
   9   0.00  0.00  0.00  0.00  0.00  0.00  0.00  0.00  2.36 15.03  1.61  0.00  0.00  0.00  0.00
  10   0.00  0.00  0.00  0.00  0.00  0.00  0.00  0.00  0.58  2.58  0.00  0.00  0.00  0.00  0.00
  11   0.00  0.00  0.00  0.00  0.00  0.00  0.00  0.00  0.00  0.00  0.00  0.00  0.00  0.00  0.00
  12   0.00  0.00  0.00  0.00  0.00  0.00  2.11  0.00  0.00  0.00  0.00  0.00  0.00  0.00  0.00
  13   0.00  0.00  0.00  0.00  0.00  0.00  0.00  0.00  0.00  0.00  0.00  0.00  0.00  0.00  0.00
  14   0.00  0.00  0.00  0.00  0.00  0.00  0.00  0.00  0.00  0.00  0.00  0.00  0.00  0.00  0.00
  15   0.00  0.00  0.00  0.00  0.00  0.00  0.00  0.00  0.00  0.00  0.00  0.00  0.00  0.00  0.00
  16   0.00  0.00  0.00  0.00  0.00  0.00  0.00  0.00  0.00  0.00  0.00  0.00  0.00  0.00  0.00
  17   0.00  0.00  0.00  0.00  0.00  0.00  0.00  0.00  0.00  0.00  0.00  0.00  0.00  0.00  0.00
  18   0.00  0.00  0.00  0.00  0.00  0.00  0.00  0.00  0.00  0.00  0.00  0.00  0.00  0.00  0.00
  19   0.00  0.00  0.00  0.00  0.00  0.00  0.00  0.00  0.00  0.00  0.00  0.00  0.00  0.00  0.00
  20   0.00  0.00  0.00  0.00  0.00  0.00  0.00  0.00  0.00  0.00  0.00  0.00  0.00  0.00  0.00
1
  CHANGE IN PCSTRS IN LAYER   3 AT END OF TIME STEP  60 IN STRESS PERIOD    3
  ---------------------------------------------------------------------------

         1     2     3     4     5     6     7     8     9    10    11    12    13    14    15
 .............................................................................................
   1   0.00  0.00  0.00  0.00  0.00  0.00  0.00  0.00  0.00  0.00  0.00  0.00  0.00  0.00  0.00
   2   0.00  0.00  0.00  0.00  0.00  0.00  0.00  0.00  0.00  0.00  0.00  0.00  0.00  0.00  0.00
   3   0.00  0.00  0.00  0.00  0.00  0.00  0.00  0.00  0.00  0.00  0.00  0.00  0.00  0.00  0.00
   4   0.00  0.00  0.00  0.00  0.00  0.00  0.00  0.00  0.00  0.00  0.00  0.00  0.00  0.00  0.00
   5   0.00  0.00  0.00  0.00  0.00  0.00  0.00  0.00  0.00  0.00  0.00  0.00  0.00  0.00  0.00
   6   0.00  0.00  0.00  0.00  0.00  0.00  0.00  0.00  0.00  0.00  0.00  0.00  0.00  0.00  0.00
   7   0.00  0.00  0.00  0.00  0.00  0.00  0.00  0.00  0.00  0.00  0.00  0.00  0.00  0.00  0.00
   8   0.00  0.00  0.00  0.00  0.00  0.00  0.00  0.00  0.00  0.00  0.00  0.00  0.00  0.00  0.00
   9   0.00  0.00  0.00  0.00  0.00  0.00  0.00  0.00  0.92  6.49  0.15  0.00  0.00  0.00  0.00
  10   0.00  0.00  0.00  0.00  0.00  0.00  0.00  0.00  0.24  1.12  0.00  0.00  0.00  0.00  0.00
  11   0.00  0.00  0.00  0.00  0.00  0.00  2.01  0.57  0.00  0.00  0.00  0.00  0.00  0.00  0.00
  12   0.00  0.00  0.00  0.00  0.00  0.89 11.27  2.00  0.00  0.00  0.00  0.00  0.00  0.00  0.00
  13   0.00  0.00  0.00  0.00  0.00  0.00  0.77  0.00  0.00  0.00  0.00  0.00  0.00  0.00  0.00
  14   0.00  0.00  0.00  0.00  0.00  0.00  0.00  0.00  0.00  0.00  0.00  0.00  0.00  0.00  0.00
  15   0.00  0.00  0.00  0.00  0.00  0.00  0.00  0.00  0.00  0.00  0.00  0.00  0.00  0.00  0.00
  16   0.00  0.00  0.00  0.00  0.00  0.00  0.00  0.00  0.00  0.00  0.00  0.00  0.00  0.00  0.00
  17   0.00  0.00  0.00  0.00  0.00  0.00  0.00  0.00  0.00  0.00  0.00  0.00  0.00  0.00  0.00
  18   0.00  0.00  0.00  0.00  0.00  0.00  0.00  0.00  0.00  0.00  0.00  0.00  0.00  0.00  0.00
  19   0.00  0.00  0.00  0.00  0.00  0.00  0.00  0.00  0.00  0.00  0.00  0.00  0.00  0.00  0.00
  20   0.00  0.00  0.00  0.00  0.00  0.00  0.00  0.00  0.00  0.00  0.00  0.00  0.00  0.00  0.00
1
  CHANGE IN PCSTRS IN LAYER   4 AT END OF TIME STEP  60 IN STRESS PERIOD    3
  ---------------------------------------------------------------------------

         1     2     3     4     5     6     7     8     9    10    11    12    13    14    15
 .............................................................................................
   1   0.00  0.00  0.00  0.00  0.00  0.00  0.00  0.00  0.00  0.00  0.00  0.00  0.00  0.00  0.00
   2   0.00  0.00  0.00  0.00  0.00  0.00  0.00  0.00  0.00  0.00  0.00  0.00  0.00  0.00  0.00
   3   0.00  0.00  0.00  0.00  0.00  0.00  0.00  0.00  0.00  0.00  0.00  0.00  0.00  0.00  0.00
   4   0.00  0.00  0.00  0.00  0.00  0.00  0.00  0.00  0.00  0.00  0.00  0.00  0.00  0.00  0.00
   5   0.00  0.00  0.00  0.00  0.00  0.00  0.00  0.00  0.00  0.00  0.00  0.00  0.00  0.00  0.00
   6   0.00  0.00  0.00  0.00  0.00  0.00  0.00  0.00  0.00  0.00  0.00  0.00  0.00  0.00  0.00
   7   0.00  0.00  0.00  0.00  0.00  0.00  0.00  0.00  0.00  0.00  0.00  0.00  0.00  0.00  0.00
   8   0.00  0.00  0.00  0.00  0.00  0.00  0.00  0.00  0.00  0.00  0.00  0.00  0.00  0.00  0.00
   9   0.00  0.00  0.00  0.00  0.00  0.00  0.00  0.00  0.00  0.00  0.00  0.00  0.00  0.00  0.00
  10   0.00  0.00  0.00  0.00  0.00  0.00  0.00  0.00  0.00  0.00  0.00  0.00  0.00  0.00  0.00
  11   0.00  0.00  0.00  0.00  0.00  0.00  4.14  1.46  0.00  0.00  0.00  0.00  0.00  0.00  0.00
  12   0.00  0.00  0.00  0.00  0.00  3.05 20.67  4.12  0.00  0.00  0.00  0.00  0.00  0.00  0.00
  13   0.00  0.00  0.00  0.00  0.00  0.00  2.91  0.00  0.00  0.00  0.00  0.00  0.00  0.00  0.00
  14   0.00  0.00  0.00  0.00  0.00  0.00  0.00  0.00  0.00  0.00  0.00  0.00  0.00  0.00  0.00
  15   0.00  0.00  0.00  0.00  0.00  0.00  0.00  0.00  0.00  0.00  0.00  0.00  0.00  0.00  0.00
  16   0.00  0.00  0.00  0.00  0.00  0.00  0.00  0.00  0.00  0.00  0.00  0.00  0.00  0.00  0.00
  17   0.00  0.00  0.00  0.00  0.00  0.00  0.00  0.00  0.00  0.00  0.00  0.00  0.00  0.00  0.00
  18   0.00  0.00  0.00  0.00  0.00  0.00  0.00  0.00  0.00  0.00  0.00  0.00  0.00  0.00  0.00
  19   0.00  0.00  0.00  0.00  0.00  0.00  0.00  0.00  0.00  0.00  0.00  0.00  0.00  0.00  0.00
  20   0.00  0.00  0.00  0.00  0.00  0.00  0.00  0.00  0.00  0.00  0.00  0.00  0.00  0.00  0.00
1
  GEOSTATIC STRESS IN LAYER   1 AT END OF TIME STEP  60 IN STRESS PERIOD    3
  ---------------------------------------------------------------------------

           1       2       3       4       5       6       7       8       9      10      11      12      13      14      15
 ...........................................................................................................................
   1    170.0   170.0   170.0   170.0   170.0   194.4   194.4   194.6   194.4   194.3   170.0   170.0   170.0   170.0   170.0
   2    170.0   170.0   170.0   170.0   194.6   194.3   194.3   194.5   194.3   194.2   194.3   194.5   170.0   170.0   170.0
   3    170.0   170.0   170.0   194.4   194.2   194.1   194.1   194.1   194.1   194.1   194.1   194.2   170.0   170.0   170.0
   4    170.0   170.0   170.0   194.0   193.9   193.9   193.9   193.8   193.8   193.8   193.9   194.2   170.0   170.0   170.0
   5    170.0   170.0   193.9   193.7   193.7   193.6   193.6   193.6   193.6   193.6   193.6   193.7   193.9   170.0   170.0
   6    170.0   170.0   193.5   193.4   193.4   193.4   193.3   193.3   193.3   193.3   193.3   193.4   193.4   193.6   170.0
   7    170.0   193.4   193.2   193.2   193.1   193.1   193.1   193.0   193.0   193.0   193.0   193.1   193.1   193.1   170.0
   8    170.0   193.0   192.9   192.9   192.9   192.8   192.8   192.8   192.8   192.7   192.8   192.8   192.8   192.8   170.0
   9    192.5   192.6   192.6   192.6   192.6   192.5   192.5   192.5   192.5   192.5   192.5   192.5   192.5   192.4   192.3
  10    192.4   192.4   192.4   192.4   192.3   192.3   192.2   192.2   192.2   192.2   192.2   192.2   192.2   192.2   192.2
  11    192.3   192.3   192.2   192.2   192.1   192.0   192.0   191.9   191.9   191.9   192.0   192.0   192.0   192.1   192.1
  12    170.0   192.1   192.0   191.9   191.9   191.8   191.7   191.7   191.7   191.7   191.7   191.8   191.9   191.9   192.0
  13    170.0   192.1   191.9   191.8   191.6   191.5   191.4   191.4   191.4   191.4   191.5   191.6   191.7   191.9   170.0
  14    170.0   192.2   191.8   191.6   191.4   191.2   191.1   191.1   191.1   191.1   191.2   191.4   191.6   192.0   170.0
  15    170.0   170.0   191.6   191.4   191.2   191.0   190.8   190.7   190.7   190.8   191.0   191.2   191.4   170.0   170.0
  16    170.0   170.0   191.7   191.2   190.9   190.7   190.4   190.3   190.3   190.4   190.7   191.0   191.5   170.0   170.0
  17    170.0   170.0   170.0   191.0   190.7   190.3   190.0   189.7   189.7   190.0   190.4   190.9   191.4   170.0   170.0
  18    170.0   170.0   170.0   191.1   190.6   190.1   189.4   188.8   188.8   189.3   190.2   190.8   170.0   170.0   170.0
  19    170.0   170.0   170.0   170.0   170.0   170.0   188.8   187.5   187.4   188.4   170.0   170.0   170.0   170.0   170.0
  20    170.0   170.0   170.0   170.0   170.0   170.0   170.0   185.0   185.0   170.0   170.0   170.0   170.0   170.0   170.0
1
  GEOSTATIC STRESS IN LAYER   2 AT END OF TIME STEP  60 IN STRESS PERIOD    3
  ---------------------------------------------------------------------------

           1       2       3       4       5       6       7       8       9      10      11      12      13      14      15
 ...........................................................................................................................
   1    425.0   425.0   425.0   425.0   425.0   494.4   494.4   494.6   494.4   494.3   425.0   425.0   425.0   425.0   425.0
   2    425.0   425.0   425.0   425.0   494.6   494.3   494.3   494.5   494.3   494.2   494.3   494.5   425.0   425.0   425.0
   3    425.0   425.0   425.0   494.4   494.2   494.1   494.1   494.1   494.1   494.1   494.1   494.2   425.0   425.0   425.0
   4    425.0   425.0   425.0   494.0   493.9   493.9   493.9   493.8   493.8   493.8   493.9   494.2   425.0   425.0   425.0
   5    425.0   425.0   493.9   493.7   493.7   493.6   493.6   493.6   493.6   493.6   493.6   493.7   493.9   425.0   425.0
   6    425.0   425.0   493.5   493.4   493.4   493.4   493.3   493.3   493.3   493.3   493.3   493.4   493.4   493.6   425.0
   7    425.0   493.4   493.2   493.2   493.1   493.1   493.1   493.0   493.0   493.0   493.0   493.1   493.1   493.1   425.0
   8    425.0   493.0   492.9   492.9   492.9   492.8   492.8   492.8   492.8   492.7   492.8   492.8   492.8   492.8   425.0
   9    492.5   492.6   492.6   492.6   492.6   492.5   492.5   492.5   492.5   492.5   492.5   492.5   492.5   492.4   492.3
  10    492.4   492.4   492.4   492.4   492.3   492.3   492.2   492.2   492.2   492.2   492.2   492.2   492.2   492.2   492.2
  11    492.3   492.3   492.2   492.2   492.1   492.0   492.0   491.9   491.9   491.9   492.0   492.0   492.0   492.1   492.1
  12    425.0   492.1   492.0   491.9   491.9   491.8   491.7   491.7   491.7   491.7   491.7   491.8   491.9   491.9   492.0
  13    425.0   492.1   491.9   491.8   491.6   491.5   491.4   491.4   491.4   491.4   491.5   491.6   491.7   491.9   425.0
  14    425.0   492.2   491.8   491.6   491.4   491.2   491.1   491.1   491.1   491.1   491.2   491.4   491.6   492.0   425.0
  15    425.0   425.0   491.6   491.4   491.2   491.0   490.8   490.7   490.7   490.8   491.0   491.2   491.4   425.0   425.0
  16    425.0   425.0   491.7   491.2   490.9   490.7   490.4   490.3   490.3   490.4   490.7   491.0   491.5   425.0   425.0
  17    425.0   425.0   425.0   491.0   490.7   490.3   490.0   489.7   489.7   490.0   490.4   490.9   491.4   425.0   425.0
  18    425.0   425.0   425.0   491.1   490.6   490.1   489.4   488.8   488.8   489.3   490.2   490.8   425.0   425.0   425.0
  19    425.0   425.0   425.0   425.0   425.0   425.0   488.8   487.5   487.4   488.4   425.0   425.0   425.0   425.0   425.0
  20    425.0   425.0   425.0   425.0   425.0   425.0   425.0   485.0   485.0   425.0   425.0   425.0   425.0   425.0   425.0
1
  GEOSTATIC STRESS IN LAYER   3 AT END OF TIME STEP  60 IN STRESS PERIOD    3
  ---------------------------------------------------------------------------

           1       2       3       4       5       6       7       8       9      10      11      12      13      14      15
 ...........................................................................................................................
   1    510.0   510.0   510.0   510.0   510.0   594.4   594.4   594.6   594.4   594.3   510.0   510.0   510.0   510.0   510.0
   2    510.0   510.0   510.0   510.0   594.6   594.3   594.3   594.5   594.3   594.2   594.3   594.5   510.0   510.0   510.0
   3    510.0   510.0   510.0   594.4   594.2   594.1   594.1   594.1   594.1   594.1   594.1   594.2   510.0   510.0   510.0
   4    510.0   510.0   510.0   594.0   593.9   593.9   593.9   593.8   593.8   593.8   593.9   594.2   510.0   510.0   510.0
   5    510.0   510.0   593.9   593.7   593.7   593.6   593.6   593.6   593.6   593.6   593.6   593.7   593.9   510.0   510.0
   6    510.0   510.0   593.5   593.4   593.4   593.4   593.3   593.3   593.3   593.3   593.3   593.4   593.4   593.6   510.0
   7    510.0   593.4   593.2   593.2   593.1   593.1   593.1   593.0   593.0   593.0   593.0   593.1   593.1   593.1   510.0
   8    510.0   593.0   592.9   592.9   592.9   592.8   592.8   592.8   592.8   592.7   592.8   592.8   592.8   592.8   510.0
   9    592.5   592.6   592.6   592.6   592.6   592.5   592.5   592.5   592.5   592.5   592.5   592.5   592.5   592.4   592.3
  10    592.4   592.4   592.4   592.4   592.3   592.3   592.2   592.2   592.2   592.2   592.2   592.2   592.2   592.2   592.2
  11    592.3   592.3   592.2   592.2   592.1   592.0   592.0   591.9   591.9   591.9   592.0   592.0   592.0   592.1   592.1
  12    510.0   592.1   592.0   591.9   591.9   591.8   591.7   591.7   591.7   591.7   591.7   591.8   591.9   591.9   592.0
  13    510.0   592.1   591.9   591.8   591.6   591.5   591.4   591.4   591.4   591.4   591.5   591.6   591.7   591.9   510.0
  14    510.0   592.2   591.8   591.6   591.4   591.2   591.1   591.1   591.1   591.1   591.2   591.4   591.6   592.0   510.0
  15    510.0   510.0   591.6   591.4   591.2   591.0   590.8   590.7   590.7   590.8   591.0   591.2   591.4   510.0   510.0
  16    510.0   510.0   591.7   591.2   590.9   590.7   590.4   590.3   590.3   590.4   590.7   591.0   591.5   510.0   510.0
  17    510.0   510.0   510.0   591.0   590.7   590.3   590.0   589.7   589.7   590.0   590.4   590.9   591.4   510.0   510.0
  18    510.0   510.0   510.0   591.1   590.6   590.1   589.4   588.8   588.8   589.3   590.2   590.8   510.0   510.0   510.0
  19    510.0   510.0   510.0   510.0   510.0   510.0   588.8   587.5   587.4   588.4   510.0   510.0   510.0   510.0   510.0
  20    510.0   510.0   510.0   510.0   510.0   510.0   510.0   585.0   585.0   510.0   510.0   510.0   510.0   510.0   510.0
1
  GEOSTATIC STRESS IN LAYER   4 AT END OF TIME STEP  60 IN STRESS PERIOD    3
  ---------------------------------------------------------------------------

           1       2       3       4       5       6       7       8       9      10      11      12      13      14      15
 ...........................................................................................................................
   1    850.0   850.0   850.0   850.0   850.0   994.4   994.4   994.6   994.4   994.3   850.0   850.0   850.0   850.0   850.0
   2    850.0   850.0   850.0   850.0   994.6   994.3   994.3   994.5   994.3   994.2   994.3   994.5   850.0   850.0   850.0
   3    850.0   850.0   850.0   994.4   994.2   994.1   994.1   994.1   994.1   994.1   994.1   994.2   850.0   850.0   850.0
   4    850.0   850.0   850.0   994.0   993.9   993.9   993.9   993.8   993.8   993.8   993.9   994.2   850.0   850.0   850.0
   5    850.0   850.0   993.9   993.7   993.7   993.6   993.6   993.6   993.6   993.6   993.6   993.7   993.9   850.0   850.0
   6    850.0   850.0   993.5   993.4   993.4   993.4   993.3   993.3   993.3   993.3   993.3   993.4   993.4   993.6   850.0
   7    850.0   993.4   993.2   993.2   993.1   993.1   993.1   993.0   993.0   993.0   993.0   993.1   993.1   993.1   850.0
   8    850.0   993.0   992.9   992.9   992.9   992.8   992.8   992.8   992.8   992.7   992.8   992.8   992.8   992.8   850.0
   9    992.5   992.6   992.6   992.6   992.6   992.5   992.5   992.5   992.5   992.5   992.5   992.5   992.5   992.4   992.3
  10    992.4   992.4   992.4   992.4   992.3   992.3   992.2   992.2   992.2   992.2   992.2   992.2   992.2   992.2   992.2
  11    992.3   992.3   992.2   992.2   992.1   992.0   992.0   991.9   991.9   991.9   992.0   992.0   992.0   992.1   992.1
  12    850.0   992.1   992.0   991.9   991.9   991.8   991.7   991.7   991.7   991.7   991.7   991.8   991.9   991.9   992.0
  13    850.0   992.1   991.9   991.8   991.6   991.5   991.4   991.4   991.4   991.4   991.5   991.6   991.7   991.9   850.0
  14    850.0   992.2   991.8   991.6   991.4   991.2   991.1   991.1   991.1   991.1   991.2   991.4   991.6   992.0   850.0
  15    850.0   850.0   991.6   991.4   991.2   991.0   990.8   990.7   990.7   990.8   991.0   991.2   991.4   850.0   850.0
  16    850.0   850.0   991.7   991.2   990.9   990.7   990.4   990.3   990.3   990.4   990.7   991.0   991.5   850.0   850.0
  17    850.0   850.0   850.0   991.0   990.7   990.3   990.0   989.7   989.7   990.0   990.4   990.9   991.4   850.0   850.0
  18    850.0   850.0   850.0   991.1   990.6   990.1   989.4   988.8   988.8   989.3   990.2   990.8   850.0   850.0   850.0
  19    850.0   850.0   850.0   850.0   850.0   850.0   988.8   987.5   987.4   988.4   850.0   850.0   850.0   850.0   850.0
  20    850.0   850.0   850.0   850.0   850.0   850.0   850.0   985.0   985.0   850.0   850.0   850.0   850.0   850.0   850.0
1
  CHANGE IN G-STRS IN LAYER   1 AT END OF TIME STEP  60 IN STRESS PERIOD    3
  ---------------------------------------------------------------------------

           1       2       3       4       5       6       7       8       9      10      11      12      13      14      15
 ...........................................................................................................................
   1     0.00    0.00    0.00    0.00    0.00   -3.38   -3.38   -3.38   -3.39   -3.40    0.00    0.00    0.00    0.00    0.00
   2     0.00    0.00    0.00    0.00   -3.37   -3.38   -3.39   -3.39   -3.40   -3.41   -3.43   -3.42    0.00    0.00    0.00
   3     0.00    0.00    0.00   -3.38   -3.39   -3.39   -3.40   -3.41   -3.42   -3.43   -3.44   -3.44    0.00    0.00    0.00
   4     0.00    0.00    0.00   -3.40   -3.40   -3.41   -3.42   -3.43   -3.44   -3.45   -3.46   -3.46    0.00    0.00    0.00
   5     0.00    0.00   -3.41   -3.42   -3.42   -3.42   -3.43   -3.44   -3.46   -3.47   -3.48   -3.50   -3.51    0.00    0.00
   6     0.00    0.00   -3.43   -3.43   -3.43   -3.44   -3.45   -3.46   -3.47   -3.49   -3.50   -3.52   -3.53   -3.54    0.00
   7     0.00   -3.42   -3.43   -3.43   -3.44   -3.44   -3.45   -3.46   -3.48   -3.50   -3.51   -3.53   -3.54   -3.55    0.00
   8     0.00   -3.43   -3.43   -3.43   -3.44   -3.44   -3.45   -3.46   -3.48   -3.49   -3.51   -3.53   -3.55   -3.56    0.00
   9    -3.43   -3.43   -3.43   -3.42   -3.42   -3.43   -3.44   -3.45   -3.46   -3.48   -3.50   -3.52   -3.54   -3.55   -3.56
  10    -3.42   -3.42   -3.41   -3.40   -3.40   -3.40   -3.40   -3.41   -3.43   -3.45   -3.47   -3.49   -3.51   -3.53   -3.54
  11    -3.41   -3.39   -3.38   -3.37   -3.36   -3.35   -3.35   -3.36   -3.37   -3.39   -3.42   -3.44   -3.47   -3.50   -3.52
  12     0.00   -3.34   -3.33   -3.31   -3.30   -3.29   -3.28   -3.29   -3.30   -3.32   -3.34   -3.38   -3.41   -3.45   -3.50
  13     0.00   -3.29   -3.27   -3.25   -3.22   -3.20   -3.19   -3.18   -3.19   -3.21   -3.25   -3.28   -3.32   -3.36    0.00
  14     0.00   -3.24   -3.20   -3.16   -3.13   -3.09   -3.06   -3.05   -3.05   -3.08   -3.12   -3.17   -3.22   -3.29    0.00
  15     0.00    0.00   -3.10   -3.06   -3.01   -2.96   -2.90   -2.87   -2.88   -2.91   -2.97   -3.02   -3.06    0.00    0.00
  16     0.00    0.00   -3.03   -2.96   -2.89   -2.80   -2.71   -2.65   -2.65   -2.71   -2.80   -2.88   -2.92    0.00    0.00
  17     0.00    0.00    0.00   -2.83   -2.76   -2.63   -2.46   -2.35   -2.35   -2.46   -2.62   -2.74   -2.83    0.00    0.00
  18     0.00    0.00    0.00   -2.75   -2.67   -2.49   -2.14   -1.91   -1.91   -2.13   -2.46   -2.59    0.00    0.00    0.00
  19     0.00    0.00    0.00    0.00    0.00    0.00   -1.69   -1.23   -1.23   -1.69    0.00    0.00    0.00    0.00    0.00
  20     0.00    0.00    0.00    0.00    0.00    0.00    0.00    0.00    0.00    0.00    0.00    0.00    0.00    0.00    0.00
1
  CHANGE IN G-STRS IN LAYER   2 AT END OF TIME STEP  60 IN STRESS PERIOD    3
  ---------------------------------------------------------------------------

           1       2       3       4       5       6       7       8       9      10      11      12      13      14      15
 ...........................................................................................................................
   1     0.00    0.00    0.00    0.00    0.00   -3.38   -3.38   -3.38   -3.39   -3.40    0.00    0.00    0.00    0.00    0.00
   2     0.00    0.00    0.00    0.00   -3.37   -3.38   -3.39   -3.39   -3.40   -3.41   -3.43   -3.42    0.00    0.00    0.00
   3     0.00    0.00    0.00   -3.38   -3.39   -3.39   -3.40   -3.41   -3.42   -3.43   -3.44   -3.44    0.00    0.00    0.00
   4     0.00    0.00    0.00   -3.40   -3.40   -3.41   -3.42   -3.43   -3.44   -3.45   -3.46   -3.46    0.00    0.00    0.00
   5     0.00    0.00   -3.41   -3.42   -3.42   -3.42   -3.43   -3.44   -3.46   -3.47   -3.48   -3.50   -3.51    0.00    0.00
   6     0.00    0.00   -3.43   -3.43   -3.43   -3.44   -3.45   -3.46   -3.47   -3.49   -3.50   -3.52   -3.53   -3.54    0.00
   7     0.00   -3.42   -3.43   -3.43   -3.44   -3.44   -3.45   -3.46   -3.48   -3.50   -3.51   -3.53   -3.54   -3.55    0.00
   8     0.00   -3.43   -3.43   -3.43   -3.44   -3.44   -3.45   -3.46   -3.48   -3.49   -3.51   -3.53   -3.55   -3.56    0.00
   9    -3.43   -3.43   -3.43   -3.42   -3.42   -3.43   -3.44   -3.45   -3.46   -3.48   -3.50   -3.52   -3.54   -3.55   -3.56
  10    -3.42   -3.42   -3.41   -3.40   -3.40   -3.40   -3.40   -3.41   -3.43   -3.45   -3.47   -3.49   -3.51   -3.53   -3.54
  11    -3.41   -3.39   -3.38   -3.37   -3.36   -3.35   -3.35   -3.36   -3.37   -3.39   -3.42   -3.44   -3.47   -3.50   -3.52
  12     0.00   -3.34   -3.33   -3.31   -3.30   -3.29   -3.28   -3.29   -3.30   -3.32   -3.34   -3.38   -3.41   -3.45   -3.50
  13     0.00   -3.29   -3.27   -3.25   -3.22   -3.20   -3.19   -3.18   -3.19   -3.21   -3.25   -3.28   -3.32   -3.36    0.00
  14     0.00   -3.24   -3.20   -3.16   -3.13   -3.09   -3.06   -3.05   -3.05   -3.08   -3.12   -3.17   -3.22   -3.29    0.00
  15     0.00    0.00   -3.10   -3.06   -3.01   -2.96   -2.90   -2.87   -2.88   -2.91   -2.97   -3.02   -3.06    0.00    0.00
  16     0.00    0.00   -3.03   -2.96   -2.89   -2.80   -2.71   -2.65   -2.65   -2.71   -2.80   -2.88   -2.92    0.00    0.00
  17     0.00    0.00    0.00   -2.83   -2.76   -2.63   -2.46   -2.35   -2.35   -2.46   -2.62   -2.74   -2.83    0.00    0.00
  18     0.00    0.00    0.00   -2.75   -2.67   -2.49   -2.14   -1.91   -1.91   -2.13   -2.46   -2.59    0.00    0.00    0.00
  19     0.00    0.00    0.00    0.00    0.00    0.00   -1.69   -1.23   -1.23   -1.69    0.00    0.00    0.00    0.00    0.00
  20     0.00    0.00    0.00    0.00    0.00    0.00    0.00    0.00    0.00    0.00    0.00    0.00    0.00    0.00    0.00
1
  CHANGE IN G-STRS IN LAYER   3 AT END OF TIME STEP  60 IN STRESS PERIOD    3
  ---------------------------------------------------------------------------

           1       2       3       4       5       6       7       8       9      10      11      12      13      14      15
 ...........................................................................................................................
   1     0.00    0.00    0.00    0.00    0.00   -3.38   -3.38   -3.38   -3.39   -3.40    0.00    0.00    0.00    0.00    0.00
   2     0.00    0.00    0.00    0.00   -3.37   -3.38   -3.39   -3.39   -3.40   -3.41   -3.43   -3.42    0.00    0.00    0.00
   3     0.00    0.00    0.00   -3.38   -3.39   -3.39   -3.40   -3.41   -3.42   -3.43   -3.44   -3.44    0.00    0.00    0.00
   4     0.00    0.00    0.00   -3.40   -3.40   -3.41   -3.42   -3.43   -3.44   -3.45   -3.46   -3.46    0.00    0.00    0.00
   5     0.00    0.00   -3.41   -3.42   -3.42   -3.42   -3.43   -3.44   -3.46   -3.47   -3.48   -3.50   -3.51    0.00    0.00
   6     0.00    0.00   -3.43   -3.43   -3.43   -3.44   -3.45   -3.46   -3.47   -3.49   -3.50   -3.52   -3.53   -3.54    0.00
   7     0.00   -3.42   -3.43   -3.43   -3.44   -3.44   -3.45   -3.46   -3.48   -3.50   -3.51   -3.53   -3.54   -3.55    0.00
   8     0.00   -3.43   -3.43   -3.43   -3.44   -3.44   -3.45   -3.46   -3.48   -3.49   -3.51   -3.53   -3.55   -3.56    0.00
   9    -3.43   -3.43   -3.43   -3.42   -3.42   -3.43   -3.44   -3.45   -3.46   -3.48   -3.50   -3.52   -3.54   -3.55   -3.56
  10    -3.42   -3.42   -3.41   -3.40   -3.40   -3.40   -3.40   -3.41   -3.43   -3.45   -3.47   -3.49   -3.51   -3.53   -3.54
  11    -3.41   -3.39   -3.38   -3.37   -3.36   -3.35   -3.35   -3.36   -3.37   -3.39   -3.42   -3.44   -3.47   -3.50   -3.52
  12     0.00   -3.34   -3.33   -3.31   -3.30   -3.29   -3.28   -3.29   -3.30   -3.32   -3.34   -3.38   -3.41   -3.45   -3.50
  13     0.00   -3.29   -3.27   -3.25   -3.22   -3.20   -3.19   -3.18   -3.19   -3.21   -3.25   -3.28   -3.32   -3.36    0.00
  14     0.00   -3.24   -3.20   -3.16   -3.13   -3.09   -3.06   -3.05   -3.05   -3.08   -3.12   -3.17   -3.22   -3.29    0.00
  15     0.00    0.00   -3.10   -3.06   -3.01   -2.96   -2.90   -2.87   -2.88   -2.91   -2.97   -3.02   -3.06    0.00    0.00
  16     0.00    0.00   -3.03   -2.96   -2.89   -2.80   -2.71   -2.65   -2.65   -2.71   -2.80   -2.88   -2.92    0.00    0.00
  17     0.00    0.00    0.00   -2.83   -2.76   -2.63   -2.46   -2.35   -2.35   -2.46   -2.62   -2.74   -2.83    0.00    0.00
  18     0.00    0.00    0.00   -2.75   -2.67   -2.49   -2.14   -1.91   -1.91   -2.13   -2.46   -2.59    0.00    0.00    0.00
  19     0.00    0.00    0.00    0.00    0.00    0.00   -1.69   -1.23   -1.23   -1.69    0.00    0.00    0.00    0.00    0.00
  20     0.00    0.00    0.00    0.00    0.00    0.00    0.00    0.00    0.00    0.00    0.00    0.00    0.00    0.00    0.00
1
  CHANGE IN G-STRS IN LAYER   4 AT END OF TIME STEP  60 IN STRESS PERIOD    3
  ---------------------------------------------------------------------------

           1       2       3       4       5       6       7       8       9      10      11      12      13      14      15
 ...........................................................................................................................
   1     0.00    0.00    0.00    0.00    0.00   -3.38   -3.38   -3.38   -3.39   -3.40    0.00    0.00    0.00    0.00    0.00
   2     0.00    0.00    0.00    0.00   -3.37   -3.38   -3.39   -3.39   -3.40   -3.41   -3.43   -3.42    0.00    0.00    0.00
   3     0.00    0.00    0.00   -3.38   -3.39   -3.39   -3.40   -3.41   -3.42   -3.43   -3.44   -3.44    0.00    0.00    0.00
   4     0.00    0.00    0.00   -3.40   -3.40   -3.41   -3.42   -3.43   -3.44   -3.45   -3.46   -3.46    0.00    0.00    0.00
   5     0.00    0.00   -3.41   -3.42   -3.42   -3.42   -3.43   -3.44   -3.46   -3.47   -3.48   -3.50   -3.51    0.00    0.00
   6     0.00    0.00   -3.43   -3.43   -3.43   -3.44   -3.45   -3.46   -3.47   -3.49   -3.50   -3.52   -3.53   -3.54    0.00
   7     0.00   -3.42   -3.43   -3.43   -3.44   -3.44   -3.45   -3.46   -3.48   -3.50   -3.51   -3.53   -3.54   -3.55    0.00
   8     0.00   -3.43   -3.43   -3.43   -3.44   -3.44   -3.45   -3.46   -3.48   -3.49   -3.51   -3.53   -3.55   -3.56    0.00
   9    -3.43   -3.43   -3.43   -3.42   -3.42   -3.43   -3.44   -3.45   -3.46   -3.48   -3.50   -3.52   -3.54   -3.55   -3.56
  10    -3.42   -3.42   -3.41   -3.40   -3.40   -3.40   -3.40   -3.41   -3.43   -3.45   -3.47   -3.49   -3.51   -3.53   -3.54
  11    -3.41   -3.39   -3.38   -3.37   -3.36   -3.35   -3.35   -3.36   -3.37   -3.39   -3.42   -3.44   -3.47   -3.50   -3.52
  12     0.00   -3.34   -3.33   -3.31   -3.30   -3.29   -3.28   -3.29   -3.30   -3.32   -3.34   -3.38   -3.41   -3.45   -3.50
  13     0.00   -3.29   -3.27   -3.25   -3.22   -3.20   -3.19   -3.18   -3.19   -3.21   -3.25   -3.28   -3.32   -3.36    0.00
  14     0.00   -3.24   -3.20   -3.16   -3.13   -3.09   -3.06   -3.05   -3.05   -3.08   -3.12   -3.17   -3.22   -3.29    0.00
  15     0.00    0.00   -3.10   -3.06   -3.01   -2.96   -2.90   -2.87   -2.88   -2.91   -2.97   -3.02   -3.06    0.00    0.00
  16     0.00    0.00   -3.03   -2.96   -2.89   -2.80   -2.71   -2.65   -2.65   -2.71   -2.80   -2.88   -2.92    0.00    0.00
  17     0.00    0.00    0.00   -2.83   -2.76   -2.63   -2.46   -2.35   -2.35   -2.46   -2.62   -2.74   -2.83    0.00    0.00
  18     0.00    0.00    0.00   -2.75   -2.67   -2.49   -2.14   -1.91   -1.91   -2.13   -2.46   -2.59    0.00    0.00    0.00
  19     0.00    0.00    0.00    0.00    0.00    0.00   -1.69   -1.23   -1.23   -1.69    0.00    0.00    0.00    0.00    0.00
  20     0.00    0.00    0.00    0.00    0.00    0.00    0.00    0.00    0.00    0.00    0.00    0.00    0.00    0.00    0.00
1
  EFFECTIVE STRESS IN LAYER   1 AT END OF TIME STEP  60 IN STRESS PERIOD    3
  ---------------------------------------------------------------------------

           1       2       3       4       5       6       7       8       9      10      11      12      13      14      15
 ...........................................................................................................................
   1      0.0     0.0     0.0     0.0     0.0   113.2   113.1   112.6   113.2   113.4     0.0     0.0     0.0     0.0     0.0
   2      0.0     0.0     0.0     0.0   112.7   113.2   113.3   112.9   113.4   113.5   113.4   112.8     0.0     0.0     0.0
   3      0.0     0.0     0.0   113.0   113.4   113.7   113.8   113.8   113.9   113.9   113.8   113.5     0.0     0.0     0.0
   4      0.0     0.0     0.0   114.0   114.1   114.3   114.3   114.4   114.4   114.4   114.2   113.6     0.0     0.0     0.0
   5      0.0     0.0   114.2   114.6   114.8   114.9   114.9   115.0   115.0   115.0   114.8   114.6   114.3     0.0     0.0
   6      0.0     0.0   115.2   115.3   115.4   115.5   115.6   115.6   115.6   115.6   115.5   115.4   115.3   115.0     0.0
   7      0.0   115.4   115.8   115.9   116.0   116.1   116.2   116.2   116.3   116.3   116.2   116.2   116.2   116.1     0.0
   8      0.0   116.4   116.5   116.6   116.7   116.8   116.8   116.9   116.9   116.9   116.9   116.9   116.9   116.9     0.0
   9    117.4   117.2   117.2   117.2   117.3   117.4   117.5   117.5   117.6   117.6   117.6   117.6   117.6   117.7   118.0
  10    117.7   117.6   117.7   117.8   117.9   118.0   118.1   118.2   118.2   118.2   118.2   118.1   118.1   118.1   118.2
  11    117.9   118.0   118.2   118.3   118.5   118.6   118.7   118.8   118.8   118.8   118.8   118.7   118.6   118.5   118.5
  12      0.0   118.4   118.6   118.8   119.0   119.2   119.4   119.4   119.5   119.4   119.3   119.2   119.0   118.8   118.7
  13      0.0   118.5   118.9   119.2   119.5   119.8   120.0   120.1   120.1   120.0   119.9   119.6   119.3   119.0     0.0
  14      0.0   118.1   119.1   119.6   120.1   120.4   120.7   120.9   120.9   120.7   120.4   120.1   119.6   118.6     0.0
  15      0.0     0.0   119.6   120.1   120.6   121.1   121.5   121.7   121.7   121.5   121.0   120.5   120.1     0.0     0.0
  16      0.0     0.0   119.4   120.5   121.2   121.8   122.4   122.7   122.7   122.3   121.7   120.9   119.9     0.0     0.0
  17      0.0     0.0     0.0   121.1   121.7   122.5   123.4   124.1   124.1   123.4   122.4   121.3   120.0     0.0     0.0
  18      0.0     0.0     0.0   120.8   121.9   123.1   124.7   126.0   126.1   124.9   123.0   121.4     0.0     0.0     0.0
  19      0.0     0.0     0.0     0.0     0.0     0.0   126.2   129.1   129.3   127.1     0.0     0.0     0.0     0.0     0.0
  20      0.0     0.0     0.0     0.0     0.0     0.0     0.0   135.0   135.0     0.0     0.0     0.0     0.0     0.0     0.0
1
  EFFECTIVE STRESS IN LAYER   2 AT END OF TIME STEP  60 IN STRESS PERIOD    3
  ---------------------------------------------------------------------------

           1       2       3       4       5       6       7       8       9      10      11      12      13      14      15
 ...........................................................................................................................
   1      0.0     0.0     0.0     0.0     0.0   263.2   263.1   262.7   263.2   263.4     0.0     0.0     0.0     0.0     0.0
   2      0.0     0.0     0.0     0.0   262.8   263.3   263.3   263.0   263.4   263.5   263.4   262.9     0.0     0.0     0.0
   3      0.0     0.0     0.0   263.2   263.5   263.7   263.8   263.8   263.9   263.9   263.8   263.5     0.0     0.0     0.0
   4      0.0     0.0     0.0   264.0   264.1   264.3   264.3   264.4   264.4   264.4   264.2   263.7     0.0     0.0     0.0
   5      0.0     0.0   264.3   264.6   264.8   264.9   264.9   265.0   265.0   265.0   264.8   264.6   264.4     0.0     0.0
   6      0.0     0.0   265.2   265.3   265.4   265.5   265.6   265.6   265.6   265.6   265.5   265.4   265.3   265.2     0.0
   7      0.0   265.5   265.8   265.9   266.0   266.1   266.2   266.2   266.3   266.3   266.2   266.2   266.1   266.1     0.0
   8      0.0   266.4   266.5   266.6   266.7   266.8   266.8   266.9   266.9   266.9   266.9   266.9   266.9   266.9     0.0
   9    267.4   267.2   267.2   267.2   267.3   267.4   267.5   267.5   267.6   267.6   267.6   267.6   267.6   267.7   268.0
  10    267.6   267.6   267.7   267.8   267.9   268.0   268.1   268.2   268.2   268.2   268.2   268.1   268.1   268.1   268.2
  11    267.8   268.0   268.2   268.3   268.5   268.6   268.7   268.8   268.8   268.8   268.7   268.7   268.6   268.5   268.5
  12      0.0   268.4   268.6   268.8   269.0   269.2   269.3   269.4   269.5   269.4   269.3   269.2   269.0   268.8   268.7
  13      0.0   268.5   268.9   269.2   269.5   269.8   270.0   270.1   270.1   270.0   269.9   269.6   269.3   269.0     0.0
  14      0.0   268.3   269.1   269.6   270.1   270.4   270.7   270.8   270.9   270.7   270.4   270.1   269.6   268.7     0.0
  15      0.0     0.0   269.6   270.1   270.6   271.1   271.5   271.7   271.7   271.5   271.0   270.5   270.1     0.0     0.0
  16      0.0     0.0   269.5   270.5   271.2   271.8   272.4   272.7   272.7   272.3   271.7   270.9   270.0     0.0     0.0
  17      0.0     0.0     0.0   271.1   271.7   272.5   273.4   274.1   274.1   273.4   272.4   271.3   270.1     0.0     0.0
  18      0.0     0.0     0.0   270.9   271.9   273.1   274.7   276.0   276.1   274.9   273.0   271.6     0.0     0.0     0.0
  19      0.0     0.0     0.0     0.0     0.0     0.0   276.3   279.2   279.3   277.1     0.0     0.0     0.0     0.0     0.0
  20      0.0     0.0     0.0     0.0     0.0     0.0     0.0   285.0   285.0     0.0     0.0     0.0     0.0     0.0     0.0
1
  EFFECTIVE STRESS IN LAYER   3 AT END OF TIME STEP  60 IN STRESS PERIOD    3
  ---------------------------------------------------------------------------

           1       2       3       4       5       6       7       8       9      10      11      12      13      14      15
 ...........................................................................................................................
   1      0.0     0.0     0.0     0.0     0.0   313.3   313.2   313.0   313.3   313.4     0.0     0.0     0.0     0.0     0.0
   2      0.0     0.0     0.0     0.0   313.2   313.4   313.4   313.3   313.5   313.6   313.5   313.3     0.0     0.0     0.0
   3      0.0     0.0     0.0   313.5   313.6   313.8   313.8   313.8   313.9   313.9   313.8   313.7     0.0     0.0     0.0
   4      0.0     0.0     0.0   314.1   314.2   314.3   314.4   314.4   314.4   314.4   314.3   314.0     0.0     0.0     0.0
   5      0.0     0.0   314.7   314.7   314.8   314.9   314.9   315.0   315.0   315.0   314.9   314.8   314.8     0.0     0.0
   6      0.0     0.0   315.3   315.3   315.4   315.5   315.6   315.6   315.6   315.6   315.5   315.5   315.5   315.5     0.0
   7      0.0   315.9   315.9   316.0   316.0   316.1   316.2   316.2   316.2   316.2   316.2   316.2   316.2   316.2     0.0
   8      0.0   316.5   316.5   316.6   316.7   316.7   316.8   316.9   316.9   316.9   316.9   316.9   316.9   316.9     0.0
   9    317.4   317.2   317.2   317.2   317.3   317.4   317.4   317.5   317.5   317.5   317.5   317.5   317.5   317.6   317.9
  10    317.6   317.6   317.7   317.8   317.9   318.0   318.1   318.1   318.2   318.2   318.1   318.1   318.1   318.1   318.2
  11    317.8   318.0   318.1   318.3   318.4   318.6   318.7   318.8   318.8   318.8   318.7   318.6   318.6   318.5   318.5
  12      0.0   318.4   318.6   318.8   319.0   319.2   319.3   319.4   319.4   319.4   319.3   319.1   318.9   318.8   318.6
  13      0.0   318.6   318.9   319.2   319.5   319.8   320.0   320.1   320.1   320.0   319.8   319.6   319.3   319.0     0.0
  14      0.0   318.6   319.2   319.6   320.0   320.4   320.7   320.8   320.8   320.7   320.4   320.1   319.6   319.0     0.0
  15      0.0     0.0   319.7   320.1   320.6   321.1   321.4   321.7   321.7   321.4   321.0   320.6   320.2     0.0     0.0
  16      0.0     0.0   319.8   320.6   321.2   321.8   322.3   322.7   322.7   322.3   321.7   321.0   320.4     0.0     0.0
  17      0.0     0.0     0.0   321.2   321.7   322.5   323.4   324.1   324.1   323.4   322.4   321.4   320.5     0.0     0.0
  18      0.0     0.0     0.0   321.3   322.0   323.1   324.8   326.1   326.1   324.9   323.1   321.9     0.0     0.0     0.0
  19      0.0     0.0     0.0     0.0     0.0     0.0   326.7   329.2   329.4   327.1     0.0     0.0     0.0     0.0     0.0
  20      0.0     0.0     0.0     0.0     0.0     0.0     0.0   335.0   335.0     0.0     0.0     0.0     0.0     0.0     0.0
1
  EFFECTIVE STRESS IN LAYER   4 AT END OF TIME STEP  60 IN STRESS PERIOD    3
  ---------------------------------------------------------------------------

           1       2       3       4       5       6       7       8       9      10      11      12      13      14      15
 ...........................................................................................................................
   1      0.0     0.0     0.0     0.0     0.0   513.3   513.3   513.4   513.4   513.5     0.0     0.0     0.0     0.0     0.0
   2      0.0     0.0     0.0     0.0   513.6   513.5   513.5   513.6   513.6   513.6   513.6   513.7     0.0     0.0     0.0
   3      0.0     0.0     0.0   513.9   513.8   513.8   513.9   513.9   514.0   514.0   513.9   513.8     0.0     0.0     0.0
   4      0.0     0.0     0.0   514.2   514.3   514.3   514.4   514.4   514.4   514.4   514.3   514.4     0.0     0.0     0.0
   5      0.0     0.0   515.0   514.8   514.8   514.9   515.0   515.0   515.0   515.0   514.9   514.9   515.2     0.0     0.0
   6      0.0     0.0   515.4   515.4   515.4   515.5   515.6   515.6   515.6   515.6   515.6   515.5   515.6   515.9     0.0
   7      0.0   516.3   516.0   516.0   516.0   516.1   516.2   516.2   516.2   516.2   516.2   516.2   516.2   516.3     0.0
   8      0.0   516.6   516.6   516.6   516.7   516.7   516.8   516.8   516.9   516.9   516.9   516.9   516.9   516.9     0.0
   9    517.4   517.2   517.1   517.2   517.3   517.4   517.4   517.5   517.5   517.5   517.5   517.5   517.5   517.6   517.9
  10    517.6   517.6   517.7   517.7   517.9   518.0   518.0   518.1   518.1   518.1   518.1   518.1   518.1   518.1   518.1
  11    517.8   518.0   518.1   518.3   518.4   518.6   518.7   518.7   518.8   518.7   518.7   518.6   518.5   518.5   518.4
  12      0.0   518.4   518.5   518.7   519.0   519.1   519.3   519.4   519.4   519.3   519.2   519.1   518.9   518.8   518.6
  13      0.0   518.7   518.9   519.2   519.5   519.7   519.9   520.1   520.1   520.0   519.8   519.6   519.3   519.1     0.0
  14      0.0   518.9   519.3   519.6   520.0   520.4   520.6   520.8   520.8   520.6   520.4   520.0   519.7   519.4     0.0
  15      0.0     0.0   519.8   520.1   520.6   521.0   521.4   521.6   521.6   521.4   521.0   520.6   520.2     0.0     0.0
  16      0.0     0.0   520.2   520.6   521.2   521.8   522.3   522.7   522.7   522.3   521.7   521.1   520.7     0.0     0.0
  17      0.0     0.0     0.0   521.2   521.7   522.5   523.4   524.1   524.1   523.4   522.4   521.6   521.0     0.0     0.0
  18      0.0     0.0     0.0   521.6   522.1   523.1   524.9   526.1   526.1   525.0   523.2   522.3     0.0     0.0     0.0
  19      0.0     0.0     0.0     0.0     0.0     0.0   527.1   529.3   529.4   527.2     0.0     0.0     0.0     0.0     0.0
  20      0.0     0.0     0.0     0.0     0.0     0.0     0.0   535.0   535.0     0.0     0.0     0.0     0.0     0.0     0.0
1
  CHANGE IN EFF-ST IN LAYER   1 AT END OF TIME STEP  60 IN STRESS PERIOD    3
  ---------------------------------------------------------------------------

         1     2     3     4     5     6     7     8     9    10    11    12    13    14    15
 .............................................................................................
   1   0.00  0.00  0.00  0.00  0.00  7.88  7.89  7.88  7.92  7.94  0.00  0.00  0.00  0.00  0.00
   2   0.00  0.00  0.00  0.00  7.87  7.89  7.90  7.90  7.94  7.97  8.00  7.99  0.00  0.00  0.00
   3   0.00  0.00  0.00  7.89  7.91  7.92  7.93  7.95  7.98  8.01  8.03  8.04  0.00  0.00  0.00
   4   0.00  0.00  0.00  7.94  7.94  7.95  7.97  7.99  8.02  8.05  8.07  8.07  0.00  0.00  0.00
   5   0.00  0.00  7.96  7.97  7.98  7.99  8.01  8.03  8.06  8.10  8.13  8.16  8.19  0.00  0.00
   6   0.00  0.00  7.99  8.00  8.00  8.02  8.04  8.07  8.10  8.14  8.17  8.21  8.24  8.26  0.00
   7   0.00  7.99  8.01  8.01  8.02  8.03  8.06  8.08  8.12  8.16  8.20  8.24  8.27  8.29  0.00
   8   0.00  8.01  8.01  8.01  8.02  8.03  8.05  8.08  8.11  8.15  8.20  8.24  8.27  8.30  0.00
   9   8.01  8.00  7.99  7.99  7.99  8.00  8.02  8.04  8.08  8.12  8.16  8.21  8.25  8.29  8.30
  10   7.99  7.97  7.95  7.94  7.93  7.93  7.94  7.97  8.00  8.04  8.09  8.15  8.20  8.24  8.27
  11   7.96  7.91  7.88  7.85  7.84  7.83  7.83  7.84  7.87  7.92  7.97  8.04  8.10  8.16  8.21
  12   0.00  7.80  7.77  7.73  7.70  7.67  7.66  7.67  7.69  7.74  7.80  7.88  7.96  8.04  8.16
  13   0.00  7.68  7.63  7.58  7.52  7.47  7.44  7.43  7.45  7.50  7.57  7.66  7.76  7.85  0.00
  14   0.00  7.57  7.47  7.38  7.30  7.21  7.14  7.11  7.13  7.19  7.28  7.39  7.51  7.68  0.00
  15   0.00  0.00  7.24  7.15  7.03  6.90  6.78  6.71  6.72  6.80  6.93  7.06  7.15  0.00  0.00
  16   0.00  0.00  7.07  6.90  6.73  6.53  6.32  6.18  6.18  6.32  6.53  6.71  6.82  0.00  0.00
  17   0.00  0.00  0.00  6.60  6.43  6.14  5.74  5.48  5.47  5.73  6.10  6.38  6.61  0.00  0.00
  18   0.00  0.00  0.00  6.41  6.23  5.80  5.00  4.47  4.46  4.98  5.73  6.05  0.00  0.00  0.00
  19   0.00  0.00  0.00  0.00  0.00  0.00  3.94  2.87  2.87  3.94  0.00  0.00  0.00  0.00  0.00
  20   0.00  0.00  0.00  0.00  0.00  0.00  0.00  0.00  0.00  0.00  0.00  0.00  0.00  0.00  0.00
1
  CHANGE IN EFF-ST IN LAYER   2 AT END OF TIME STEP  60 IN STRESS PERIOD    3
  ---------------------------------------------------------------------------

         1     2     3     4     5     6     7     8     9    10    11    12    13    14    15
 .............................................................................................
   1   0.00  0.00  0.00  0.00  0.00  7.88  7.89  7.88  7.92  7.94  0.00  0.00  0.00  0.00  0.00
   2   0.00  0.00  0.00  0.00  7.87  7.89  7.90  7.90  7.94  7.97  8.00  7.99  0.00  0.00  0.00
   3   0.00  0.00  0.00  7.89  7.91  7.92  7.93  7.95  7.98  8.01  8.03  8.03  0.00  0.00  0.00
   4   0.00  0.00  0.00  7.94  7.94  7.96  7.97  7.99  8.02  8.05  8.07  8.07  0.00  0.00  0.00
   5   0.00  0.00  7.96  7.97  7.98  7.99  8.01  8.03  8.06  8.10  8.13  8.15  8.18  0.00  0.00
   6   0.00  0.00  7.99  8.00  8.00  8.02  8.04  8.07  8.10  8.13  8.17  8.20  8.24  8.25  0.00
   7   0.00  7.99  8.00  8.01  8.02  8.03  8.05  8.08  8.12  8.15  8.19  8.23  8.27  8.28  0.00
   8   0.00  8.01  8.01  8.01  8.02  8.03  8.05  8.08  8.11  8.15  8.19  8.23  8.27  8.29  0.00
   9   8.00  8.00  7.99  7.99  7.99  8.00  8.01  8.04  8.07  8.11  8.16  8.21  8.25  8.28  8.30
  10   7.98  7.97  7.95  7.94  7.93  7.93  7.94  7.96  7.99  8.04  8.09  8.14  8.19  8.23  8.26
  11   7.96  7.90  7.87  7.85  7.83  7.82  7.82  7.84  7.87  7.91  7.97  8.03  8.09  8.16  8.21
  12   0.00  7.79  7.76  7.73  7.69  7.67  7.66  7.66  7.69  7.73  7.80  7.87  7.95  8.04  8.15
  13   0.00  7.67  7.63  7.57  7.51  7.46  7.43  7.42  7.44  7.49  7.57  7.65  7.75  7.84  0.00
  14   0.00  7.56  7.46  7.38  7.29  7.21  7.14  7.11  7.12  7.18  7.27  7.38  7.50  7.67  0.00
  15   0.00  0.00  7.24  7.14  7.02  6.89  6.77  6.70  6.71  6.79  6.92  7.05  7.14  0.00  0.00
  16   0.00  0.00  7.06  6.89  6.73  6.53  6.31  6.18  6.18  6.31  6.52  6.70  6.81  0.00  0.00
  17   0.00  0.00  0.00  6.59  6.43  6.13  5.74  5.47  5.47  5.72  6.10  6.38  6.60  0.00  0.00
  18   0.00  0.00  0.00  6.40  6.22  5.80  5.00  4.46  4.45  4.97  5.72  6.05  0.00  0.00  0.00
  19   0.00  0.00  0.00  0.00  0.00  0.00  3.93  2.85  2.85  3.93  0.00  0.00  0.00  0.00  0.00
  20   0.00  0.00  0.00  0.00  0.00  0.00  0.00  0.00  0.00  0.00  0.00  0.00  0.00  0.00  0.00
1
  CHANGE IN EFF-ST IN LAYER   3 AT END OF TIME STEP  60 IN STRESS PERIOD    3
  ---------------------------------------------------------------------------

         1     2     3     4     5     6     7     8     9    10    11    12    13    14    15
 .............................................................................................
   1   0.00  0.00  0.00  0.00  0.00  7.89  7.90  7.90  7.93  7.95  0.00  0.00  0.00  0.00  0.00
   2   0.00  0.00  0.00  0.00  7.89  7.90  7.91  7.92  7.95  7.98  8.00  8.01  0.00  0.00  0.00
   3   0.00  0.00  0.00  7.91  7.92  7.93  7.94  7.96  7.98  8.01  8.03  8.04  0.00  0.00  0.00
   4   0.00  0.00  0.00  7.94  7.95  7.96  7.97  8.00  8.02  8.05  8.07  8.08  0.00  0.00  0.00
   5   0.00  0.00  7.97  7.97  7.98  7.99  8.01  8.03  8.06  8.09  8.12  8.14  8.18  0.00  0.00
   6   0.00  0.00  7.99  7.99  8.00  8.01  8.03  8.06  8.09  8.12  8.16  8.19  8.22  8.24  0.00
   7   0.00  7.99  8.00  8.00  8.01  8.02  8.04  8.07  8.10  8.14  8.17  8.21  8.24  8.26  0.00
   8   0.00  7.99  7.99  8.00  8.00  8.01  8.03  8.06  8.09  8.13  8.17  8.21  8.24  8.26  0.00
   9   7.98  7.98  7.97  7.97  7.97  7.98  7.99  8.02  8.05  8.09  8.13  8.17  8.21  8.24  8.26
  10   7.96  7.95  7.93  7.91  7.91  7.91  7.92  7.94  7.97  8.01  8.06  8.11  8.16  8.20  8.22
  11   7.94  7.88  7.85  7.83  7.81  7.80  7.80  7.81  7.84  7.88  7.93  7.99  8.06  8.12  8.17
  12   0.00  7.77  7.74  7.70  7.67  7.64  7.63  7.63  7.65  7.70  7.76  7.83  7.91  8.00  8.11
  13   0.00  7.65  7.60  7.54  7.49  7.44  7.40  7.39  7.41  7.46  7.53  7.62  7.71  7.80  0.00
  14   0.00  7.55  7.44  7.35  7.26  7.18  7.11  7.07  7.09  7.15  7.24  7.35  7.46  7.64  0.00
  15   0.00  0.00  7.21  7.11  6.99  6.86  6.74  6.67  6.68  6.76  6.89  7.01  7.11  0.00  0.00
  16   0.00  0.00  7.04  6.86  6.70  6.50  6.28  6.14  6.14  6.28  6.49  6.67  6.79  0.00  0.00
  17   0.00  0.00  0.00  6.56  6.40  6.10  5.71  5.44  5.43  5.69  6.06  6.35  6.58  0.00  0.00
  18   0.00  0.00  0.00  6.39  6.20  5.77  4.96  4.42  4.41  4.93  5.69  6.03  0.00  0.00  0.00
  19   0.00  0.00  0.00  0.00  0.00  0.00  3.90  2.80  2.80  3.89  0.00  0.00  0.00  0.00  0.00
  20   0.00  0.00  0.00  0.00  0.00  0.00  0.00  0.00  0.00  0.00  0.00  0.00  0.00  0.00  0.00
1
  CHANGE IN EFF-ST IN LAYER   4 AT END OF TIME STEP  60 IN STRESS PERIOD    3
  ---------------------------------------------------------------------------

         1     2     3     4     5     6     7     8     9    10    11    12    13    14    15
 .............................................................................................
   1   0.00  0.00  0.00  0.00  0.00  7.91  7.91  7.93  7.94  7.96  0.00  0.00  0.00  0.00  0.00
   2   0.00  0.00  0.00  0.00  7.91  7.92  7.93  7.94  7.96  7.98  8.01  8.02  0.00  0.00  0.00
   3   0.00  0.00  0.00  7.93  7.93  7.94  7.95  7.97  7.99  8.01  8.03  8.04  0.00  0.00  0.00
   4   0.00  0.00  0.00  7.95  7.95  7.96  7.98  8.00  8.02  8.05  8.07  8.08  0.00  0.00  0.00
   5   0.00  0.00  7.98  7.97  7.98  7.99  8.01  8.03  8.05  8.08  8.11  8.14  8.18  0.00  0.00
   6   0.00  0.00  7.98  7.99  7.99  8.01  8.03  8.05  8.08  8.11  8.14  8.17  8.20  8.23  0.00
   7   0.00  7.99  7.99  7.99  8.00  8.01  8.03  8.06  8.09  8.12  8.15  8.19  8.22  8.23  0.00
   8   0.00  7.98  7.98  7.98  7.99  8.00  8.01  8.04  8.07  8.10  8.14  8.18  8.21  8.23  0.00
   9   7.97  7.96  7.96  7.95  7.95  7.96  7.97  7.99  8.02  8.06  8.10  8.14  8.18  8.21  8.22
  10   7.94  7.93  7.91  7.89  7.88  7.88  7.89  7.91  7.94  7.98  8.02  8.07  8.12  8.16  8.19
  11   7.92  7.86  7.83  7.80  7.78  7.77  7.77  7.78  7.81  7.85  7.90  7.96  8.02  8.08  8.13
  12   0.00  7.74  7.71  7.68  7.64  7.61  7.60  7.60  7.62  7.66  7.73  7.80  7.87  7.96  8.07
  13   0.00  7.63  7.57  7.52  7.46  7.41  7.37  7.36  7.37  7.42  7.49  7.58  7.67  7.76  0.00
  14   0.00  7.53  7.41  7.32  7.23  7.15  7.08  7.04  7.05  7.11  7.20  7.31  7.43  7.62  0.00
  15   0.00  0.00  7.18  7.08  6.96  6.83  6.71  6.64  6.64  6.72  6.85  6.98  7.07  0.00  0.00
  16   0.00  0.00  7.03  6.84  6.67  6.46  6.25  6.11  6.11  6.25  6.45  6.64  6.77  0.00  0.00
  17   0.00  0.00  0.00  6.54  6.37  6.07  5.67  5.40  5.39  5.65  6.03  6.32  6.56  0.00  0.00
  18   0.00  0.00  0.00  6.37  6.17  5.73  4.92  4.37  4.36  4.89  5.66  6.01  0.00  0.00  0.00
  19   0.00  0.00  0.00  0.00  0.00  0.00  3.86  2.75  2.74  3.85  0.00  0.00  0.00  0.00  0.00
  20   0.00  0.00  0.00  0.00  0.00  0.00  0.00  0.00  0.00  0.00  0.00  0.00  0.00  0.00  0.00

 Final Remark:

   The solver successfully met the user supplied convergence criteria, HCLOSE and RCLOSE, for all 121 time steps.

   Please check the "VOLUMETRIC BUDGET FOR ENTIRE MODEL" to ensure that mass rate balance errors are acceptable for all time steps.

   The cumulative mass error for the entire simulation is 0.00 %




 Simulation finished at  


 Which had an elapsed run time of: 0.0 seconds


    OneWater Simulation Now Complete


