
      MMMMMMM                                       MM      MMM     MM
    MMM     MMM    MM      M   MMMMMMMM             LM     DM M     ML     MM     MMMMMMMMM  MMMMMMMM  MMMMMMMM
   MM         MM   MMM     M   MM                    MM    MM M     M     MMMM        M      M         MM     NM
   MM         MM   MM M    M   MM                    MM    M  MM   MM    MM  MM       M      M         MM      M
   MM         MM   MM  M   M   MMMMMMMM               MN  MM   M   MM   MM    MM      M      MMMMMMM   MMMMMMMMM
   MM         MM   MM   M  M   MM         MMMMMMM     MM  M    MM MM    MMMMMMMM      M      M         MM   MM
   MM         MM   MM    M M   MM                     LM MM    NM MM   MM      MM     M      M         MM    MM
    MM       NM    MM     MM   MM                      M M      M M   MN        MM    M      M         MM     MM
     MMMMMMMMN     MM      M   MMMMMMMM                7MM      7MM  MN          MM   M      MMMMMMMM  MM      MM


 MODFLOW-OWHM v2.0.01  


                        MODFLOW
            ONE-WATER HYDROLOGIC-FLOW MODEL

    U.S. GEOLOGICAL SURVEY MODULAR FINITE-DIFFERENCE 
           CONJUNCTIVE USE SIMULATION PROGRAM

                     Version 2.0

 Release: 01          4/23/2020

 Includes:
          MODFLOW-2005 Version 1.12.0   02/03/2017
          MODFLOW-FMP  Version 4.00.0   04/23/2017
          MODFLOW-SWR  Version 1.04.0   09/15/2016
          MODFLOW-SWI  Version 2.00.0   07/22/2013
          MODFLOW-LGR  Version 2.00.0   09/19/2013
          MODFLOW-NWT  Version 1.2.0    03/01/2020
          MODFLOW-CFP  Version 1.09.57  09/12/2017


 OneWater Simulation Initiated at 


 LIST FILE: ./output/testsfr2.lst
      UNIT: 12

OPENING DATA FILES [DATA AND DATA(BINARY)]

OPENED DATA FILE ON UNIT     83 WITH FILENAME OF: ./output/testsfr2.gg1
OPENED DATA FILE ON UNIT     84 WITH FILENAME OF: ./output/testsfr2.gg2
OPENED DATA FILE ON UNIT     85 WITH FILENAME OF: ./output/testsfr2.gg3
OPENED DATA FILE ON UNIT     86 WITH FILENAME OF: ./output/testsfr2.gg4
OPENED DATA FILE ON UNIT     87 WITH FILENAME OF: ./output/testsfr2.gg5
OPENED DATA FILE ON UNIT     88 WITH FILENAME OF: ./output/testsfr2.gg6
OPENED DATA FILE ON UNIT     89 WITH FILENAME OF: ./output/testsfr2.gg7
OPENED DATA FILE ON UNIT     90 WITH FILENAME OF: ./output/testsfr2.gg8

OPENING PACKAGES

DIS  PACKAGE OPENED.
GHB  PACKAGE OPENED.
BAS6 PACKAGE OPENED.
LPF  PACKAGE OPENED.
PCG  PACKAGE OPENED.
OC   PACKAGE OPENED.
SFR  PACKAGE OPENED.
GAGE PACKAGE OPENED.

NOTIFICATION: A FILE UNIT NUMBER WAS FOUND FOR EITHER THE LIST FILE OR A PACAKGE.
IT WILL BE USED EVEN THOUGH UNIT NUMBERS FOR THE LIST FILE AND PACKAGES ARE NOW OPTIONAL.
[IT IS RECOMMENDED TO STILL USE A UNIT NUMBER FOR DATA and DATA(BINARY) ]


 BAS -- BASIC PACKAGE, VERSION OWHM INPUT READ FROM UNIT    41
 
MODFLOW was compiled using uniform precision (Precision => Number of meaningful digits in numbers)
Precision of REAL and DOUBLE PRECISION variables: 15

 DISCRETIZATION INPUT DATA READ FROM UNIT   13

-- READING DIS PACKAGE INPUT --

# testsfr2
# MODFLOW-2005 Example problem documented in:
#   Harbaugh, A.W., 2005, MODFLOW-2005, the U.S. Geological Survey modular ground-water model -- the Ground-Water Flow Process: U.S. Geological Survey Techniques and Methods 6-A16.
#   Harbaugh, A.W., Banta, E.R., Hill, M.C. and McDonald, M.G., 2000, MODFLOW-2000, The U.S. Geological Survey Modular Ground-Water Model - User Guide to Modularization Concepts and the Ground-Water Flow Process: U.S Geological Survey Open-File Report 2000-92, 121 p., https://doi.org/10.3133/ofr200092
#   Prudic. D.E., Konikow, L.F., and Banta, E.R., 2004, A new streamflow-routing (SFR1) package to simulate stream-aquifer interaction with MODFLOW-2000: U.S Geological Survey Open-File Report 2004-1042, 104 p., https://doi.org/10.3133/ofr20041042
#
#      -Comments are preceded by a # sign
#
#-----------------------------------------------------------------------------------------------------------------------------------------------------
# Discretization file input for hypothetical test simulation
# Units: seconds, meters


*** DIS COORDINATE SYSTEM NOT SEPECIFIED ***
DEFAULT VALUES APPLIED ARE 0° ROTATION
WITH THE ORIGIN (0,0) LOCATED AT THE MODEL'S LOWER LEFT CORNER




DIS COORDINATE SYSTEM SEPECIFIED WITH:
GRID ROTATION OF 0.0°
WITH THE ORIGIN LOCATED AT THE OUTER MOST CORNER OF MODEL CELL [7,1] WITH:
X-COORDINATE:0.0
Y-COORDINATE:0.0
    1 LAYERS         7 ROWS       100 COLUMNS
     50 STRESS PERIOD(S) IN SIMULATION
 MODEL TIME UNIT IS SECONDS
 MODEL LENGTH UNIT IS METERS
  Confining bed flag for each layer:
   0

                     DELR =   200.000    



                               DELC
 READING ON UNIT   13 WITH FORMAT: (FREE)              
   90.000       90.000       90.000       60.000       90.000    
   90.000       90.000    



           TOP ELEVATION OF LAYER 1
 READING ON UNIT   13 WITH FORMAT: (FREE)              

           1          2          3          4          5          6          7          8          9         10         11
          12         13         14         15         16         17         18         19         20         21         22
          23         24         25         26         27         28         29         30         31         32         33
          34         35         36         37         38         39         40         41         42         43         44
          45         46         47         48         49         50         51         52         53         54         55
          56         57         58         59         60         61         62         63         64         65         66
          67         68         69         70         71         72         73         74         75         76         77
          78         79         80         81         82         83         84         85         86         87         88
          89         90         91         92         93         94         95         96         97         98         99
         100
 .........................................................................................................................
   1    125.       124.       124.       124.       124.       123.       123.       123.       123.       122.       122.    
        122.       122.       121.       121.       121.       121.       120.       120.       120.       120.       119.    
        119.       119.       119.       118.       118.       118.       118.       117.       117.       117.       117.    
        116.       116.       116.       116.       115.       115.       115.       115.       114.       114.       114.    
        114.       113.       113.       113.       113.       112.       112.       112.       112.       111.       111.    
        111.       111.       110.       110.       110.       110.       109.       109.       109.       109.       108.    
        108.       108.       108.       107.       107.       107.       107.       106.       106.       106.       106.    
        105.       105.       105.       105.       104.       104.       104.       104.       103.       103.       103.    
        103.       102.       102.       102.       102.       101.       101.       101.       101.       100.       100.    
        100.    
   2    125.       124.       124.       124.       124.       123.       123.       123.       123.       122.       122.    
        122.       122.       121.       121.       121.       121.       120.       120.       120.       120.       119.    
        119.       119.       119.       118.       118.       118.       118.       117.       117.       117.       117.    
        116.       116.       116.       116.       115.       115.       115.       115.       114.       114.       114.    
        114.       113.       113.       113.       113.       112.       112.       112.       112.       111.       111.    
        111.       111.       110.       110.       110.       110.       109.       109.       109.       109.       108.    
        108.       108.       108.       107.       107.       107.       107.       106.       106.       106.       106.    
        105.       105.       105.       105.       104.       104.       104.       104.       103.       103.       103.    
        103.       102.       102.       102.       102.       101.       101.       101.       101.       100.       100.    
        100.    
   3    125.       124.       124.       124.       124.       123.       123.       123.       123.       122.       122.    
        122.       122.       121.       121.       121.       121.       120.       120.       120.       120.       119.    
        119.       119.       119.       118.       118.       118.       118.       117.       117.       117.       117.    
        116.       116.       116.       116.       115.       115.       115.       115.       114.       114.       114.    
        114.       113.       113.       113.       113.       112.       112.       112.       112.       111.       111.    
        111.       111.       110.       110.       110.       110.       109.       109.       109.       109.       108.    
        108.       108.       108.       107.       107.       107.       107.       106.       106.       106.       106.    
        105.       105.       105.       105.       104.       104.       104.       104.       103.       103.       103.    
        103.       102.       102.       102.       102.       101.       101.       101.       101.       100.       100.    
        100.    
   4    125.       124.       124.       124.       124.       123.       123.       123.       123.       122.       122.    
        122.       122.       121.       121.       121.       121.       120.       120.       120.       120.       119.    
        119.       119.       119.       118.       118.       118.       118.       117.       117.       117.       117.    
        116.       116.       116.       116.       115.       115.       115.       115.       114.       114.       114.    
        114.       113.       113.       113.       113.       112.       112.       112.       112.       111.       111.    
        111.       111.       110.       110.       110.       110.       109.       109.       109.       109.       108.    
        108.       108.       108.       107.       107.       107.       107.       106.       106.       106.       106.    
        105.       105.       105.       105.       104.       104.       104.       104.       103.       103.       103.    
        103.       102.       102.       102.       102.       101.       101.       101.       101.       100.       100.    
        100.    
   5    125.       124.       124.       124.       124.       123.       123.       123.       123.       122.       122.    
        122.       122.       121.       121.       121.       121.       120.       120.       120.       120.       119.    
        119.       119.       119.       118.       118.       118.       118.       117.       117.       117.       117.    
        116.       116.       116.       116.       115.       115.       115.       115.       114.       114.       114.    
        114.       113.       113.       113.       113.       112.       112.       112.       112.       111.       111.    
        111.       111.       110.       110.       110.       110.       109.       109.       109.       109.       108.    
        108.       108.       108.       107.       107.       107.       107.       106.       106.       106.       106.    
        105.       105.       105.       105.       104.       104.       104.       104.       103.       103.       103.    
        103.       102.       102.       102.       102.       101.       101.       101.       101.       100.       100.    
        100.    
   6    125.       124.       124.       124.       124.       123.       123.       123.       123.       122.       122.    
        122.       122.       121.       121.       121.       121.       120.       120.       120.       120.       119.    
        119.       119.       119.       118.       118.       118.       118.       117.       117.       117.       117.    
        116.       116.       116.       116.       115.       115.       115.       115.       114.       114.       114.    
        114.       113.       113.       113.       113.       112.       112.       112.       112.       111.       111.    
        111.       111.       110.       110.       110.       110.       109.       109.       109.       109.       108.    
        108.       108.       108.       107.       107.       107.       107.       106.       106.       106.       106.    
        105.       105.       105.       105.       104.       104.       104.       104.       103.       103.       103.    
        103.       102.       102.       102.       102.       101.       101.       101.       101.       100.       100.    
        100.    
   7    125.       124.       124.       124.       124.       123.       123.       123.       123.       122.       122.    
        122.       122.       121.       121.       121.       121.       120.       120.       120.       120.       119.    
        119.       119.       119.       118.       118.       118.       118.       117.       117.       117.       117.    
        116.       116.       116.       116.       115.       115.       115.       115.       114.       114.       114.    
        114.       113.       113.       113.       113.       112.       112.       112.       112.       111.       111.    
        111.       111.       110.       110.       110.       110.       109.       109.       109.       109.       108.    
        108.       108.       108.       107.       107.       107.       107.       106.       106.       106.       106.    
        105.       105.       105.       105.       104.       104.       104.       104.       103.       103.       103.    
        103.       102.       102.       102.       102.       101.       101.       101.       101.       100.       100.    
        100.    

   MODEL LAYER BOTTOM EL. =   0.00000     FOR LAYER   1


 STRESS PERIOD     LENGTH       TIME STEPS     MULTIPLIER FOR DELT    SS FLAG  (OPTIONAL TIME STEP LENGTH)
 ---------------------------------------------------------------------------------------------------
        1         2592000.         30                  1.10000         TR
        2         2592000.         30                  1.10000         TR
        3         2592000.         30                  1.10000         TR
        4         2592000.         30                  1.10000         TR
        5         2592000.         30                  1.10000         TR
        6         2592000.         30                  1.10000         TR
        7         2592000.         30                  1.10000         TR
        8         2592000.         30                  1.10000         TR
        9         2592000.         30                  1.10000         TR
       10         2592000.         30                  1.10000         TR
       11         2592000.         30                  1.10000         TR
       12         2592000.         30                  1.10000         TR
       13         2592000.         30                  1.10000         TR
       14         2592000.         30                  1.10000         TR
       15         2592000.         30                  1.10000         TR
       16         2592000.         30                  1.10000         TR
       17         2592000.         30                  1.10000         TR
       18         2592000.         30                  1.10000         TR
       19         2592000.         30                  1.10000         TR
       20         2592000.         30                  1.10000         TR
       21         2592000.         30                  1.10000         TR
       22         2592000.         30                  1.10000         TR
       23         2592000.         30                  1.10000         TR
       24         2592000.         30                  1.10000         TR
       25         2592000.         30                  1.10000         TR
       26         2592000.         30                  1.10000         TR
       27         2592000.         30                  1.10000         TR
       28         2592000.         30                  1.10000         TR
       29         2592000.         30                  1.10000         TR
       30         2592000.         30                  1.10000         TR
       31         2592000.         30                  1.10000         TR
       32         2592000.         30                  1.10000         TR
       33         2592000.         30                  1.10000         TR
       34         2592000.         30                  1.10000         TR
       35         2592000.         30                  1.10000         TR
       36         2592000.         30                  1.10000         TR
       37         2592000.         30                  1.10000         TR
       38         2592000.         30                  1.10000         TR
       39         2592000.         30                  1.10000         TR
       40         2592000.         30                  1.10000         TR
       41         2592000.         30                  1.10000         TR
       42         2592000.         30                  1.10000         TR
       43         2592000.         30                  1.10000         TR
       44         2592000.         30                  1.10000         TR
       45         2592000.         30                  1.10000         TR
       46         2592000.         30                  1.10000         TR
       47         2592000.         30                  1.10000         TR
       48         2592000.         30                  1.10000         TR
       49         2592000.         30                  1.10000         TR
       50         2592000.         30                  1.10000         TR

 TRANSIENT SIMULATION




-- READING BAS PACKAGE INPUT --

# testsfr2
# MODFLOW-2005 Example problem documented in:
#   Harbaugh, A.W., 2005, MODFLOW-2005, the U.S. Geological Survey modular ground-water model -- the Ground-Water Flow Process: U.S. Geological Survey Techniques and Methods 6-A16.
#   Harbaugh, A.W., Banta, E.R., Hill, M.C. and McDonald, M.G., 2000, MODFLOW-2000, The U.S. Geological Survey Modular Ground-Water Model - User Guide to Modularization Concepts and the Ground-Water Flow Process: U.S Geological Survey Open-File Report 2000-92, 121 p., https://doi.org/10.3133/ofr200092
#   Prudic. D.E., Konikow, L.F., and Banta, E.R., 2004, A new streamflow-routing (SFR1) package to simulate stream-aquifer interaction with MODFLOW-2000: U.S Geological Survey Open-File Report 2004-1042, 104 p., https://doi.org/10.3133/ofr20041042
#
# Input modified for MODFLOW-OWHM by including the BAS options:
#    BUDGETDB ./output/testsfr2_VolumetricBudget.txt  CUMULATIVE_HEAD_CHANGE ./output/testsfr2_CumHCHG.txt  PRINT_HEAD NPER ./output/testsfr2_Head.txt
#
#-----------------------------------------------------------------------------------------------------------------------------------------------------
# BAS6 Package input file for hypothetical test simulation
# Test of SFR2 Package
# Item 1: options


 THE BAS PACKAGE NOW DEFAULTS TO FREE FORMAT.
 USE OPTION "NOFREE" TO DISABLE FREE FORMAT.



########################################################################################################

                           WARNING_MESSAGE

         THE FOLLOWING COMMENTS WERE PASSED TO THE WARNING ROUTINE

THE WARNING IS BELIEVED TO HAVE ORIGINATED FROM THE FOLLOWING FILE:
"examples\mf-2005\testsfr2.bs6"

THE GUESSED LINE THAT THE WARNING OCCURED ON IS:
"FREE  BUDGETDB ./output/testsfr2_VolumetricBudget.txt  CUMULATIVE_HEAD_CHANGE ./output/testsfr2_CumHCHG.txt  PRINT_HEAD NPER ./output/testsfr2_Head.txt"

THE DESRIPTION OF THE WARNING IS:

FOUND BAS PACKAGE OPTION KEYWORDS ALONG PACKAGE "OPTIONS LINE" (ie Data Set 1)

The BAS package options should be within an "OPTIONS BLOCK" rather than along the first line of input.

The BAS package will attempt to read the options line, but some advanced options may fail to load due to their complex input,
For example the option "SHIFT_STRT" uses ULOAD to read NLAY shift values, which would crash under certain ULOAD keyword combinations.

Also note that if any of the options specify a GENERIC_OUTPUT file, 
then there may be additional warnings about a BAS OPTION not being a recognized GENERIC_OUTPUT post-keyword.
These warnings can be ignored, since its a post-keyword warning pertaining to the GENERIC_OUTPUT file and 
the BAS OPTION is still processed by the BAS package.

It is recommended for new models to use "BEGIN OPTIONS" and then have one option per line and
end the options block with the word "END" in place of single line of options.

For example:

BEGIN OPTIONS

  START_DATE  4/23/1901
  SHOWPROGRESS
  NOCBC
  BUDGETDB ./output/VolumetricBudget.txt
  PAUSE

END OPTIONS

             - Note that "OPTIONS BLOCK" maybe empty or entirely not present,
               nor is it required to specify an "OPTIONS LINE"

             - DO NOT specify both an "OPTIONS BLOCK" and "OPTIONS LINE" at the same time.

########################################################################################################



 NOW READING BAS OPTIONS

 FOUND OPTION: FREE
    THE FREE FORMAT OPTION HAS BEEN SELECTED
         -NOTE THIS NOW IS THE DEFAULT AND NOT NECESSARY.

 FOUND OPTION: BUDGETDB


########################################################################################################

                           WARNING_MESSAGE

         THE FOLLOWING COMMENTS WERE PASSED TO THE WARNING ROUTINE

THE WARNING IS BELIEVED TO HAVE ORIGINATED FROM THE FOLLOWING FILE:
"examples\mf-2005\testsfr2.bs6"

THE GUESSED LINE THAT THE WARNING OCCURED ON IS:
"FREE  BUDGETDB ./output/testsfr2_VolumetricBudget.txt  CUMULATIVE_HEAD_CHANGE ./output/testsfr2_CumHCHG.txt  PRINT_HEAD NPER ./output/testsfr2_Head.txt"

THE DESRIPTION OF THE WARNING IS:

...CHECK_FOR_POST_KEY WARNINGS...
 THE FOLLOWING MESSAGES WERE PASSED WHILE CHECKING FOR ANY ADDITIONAL KEYWORDS ON LOADED LINE.


FAILED TO IDENTIFY THE FOLLOWING POST-KEYWORD: 

"CUMULATIVE_HEAD_CHANGE"

IT WILL BE IGNORED AND NO FURTHER KEYWORDS WILL BE CHECKED/INCLUDED TO THE RIGHT OF IT.
TO SUPRESS THIS WARNING PLEASE PLACE A "#" SYMBOL TO THE LEFT OF THE WORD TO INDICATE EVERYTHING TO THE RIGHT OF THE # IS A COMMENT

########################################################################################################



 FOUND OPTION: CUMULATIVE_HEAD_CHANGE
    THIS OPTION IS ONLY USEFUL FOR MODEL RESULT COMPARISON WITH DIFFERENT CODE COMPARISONS.



########################################################################################################

                           WARNING_MESSAGE

         THE FOLLOWING COMMENTS WERE PASSED TO THE WARNING ROUTINE

THE WARNING IS BELIEVED TO HAVE ORIGINATED FROM THE FOLLOWING FILE:
"examples\mf-2005\testsfr2.bs6"

THE GUESSED LINE THAT THE WARNING OCCURED ON IS:
"FREE  BUDGETDB ./output/testsfr2_VolumetricBudget.txt  CUMULATIVE_HEAD_CHANGE ./output/testsfr2_CumHCHG.txt  PRINT_HEAD NPER ./output/testsfr2_Head.txt"

THE DESRIPTION OF THE WARNING IS:

...CHECK_FOR_POST_KEY WARNINGS...
 THE FOLLOWING MESSAGES WERE PASSED WHILE CHECKING FOR ANY ADDITIONAL KEYWORDS ON LOADED LINE.


FAILED TO IDENTIFY THE FOLLOWING POST-KEYWORD: 

"PRINT_HEAD"

IT WILL BE IGNORED AND NO FURTHER KEYWORDS WILL BE CHECKED/INCLUDED TO THE RIGHT OF IT.
TO SUPRESS THIS WARNING PLEASE PLACE A "#" SYMBOL TO THE LEFT OF THE WORD TO INDICATE EVERYTHING TO THE RIGHT OF THE # IS A COMMENT

########################################################################################################



 FOUND OPTION: PRINT_HEAD    SP    TS   FILE
                             50    30   ./output/testsfr2_Head.txt

 THE MAX STORAGE FOR PROPERTIES DEFINED BY PARAMETERS IS: 
 MAX STORAGE OF PARAMETERS (MXPAR)  IS       2000
 MAX STORAGE OF INSTANCES  (MXINST) IS      50000
 MAX STORAGE OF CLUSTERS   (MXCLST) IS    2000000




                     BOUNDARY ARRAY FOR LAYER   1
 READING ON UNIT   41 WITH FORMAT: (30I2)              

      1 2 3 4 5 6 7 8 9101112131415161718192021222324252627282930313233343536373839404142434445464748495051525354555657585960
     61626364656667686970717273747576777879808182838485868788899091929394959697989100
 ............................................................................................................................
   1  1 1 1 1 1 1 1 1 1 1 1 1 1 1 1 1 1 1 1 1 1 1 1 1 1 1 1 1 1 1 1 1 1 1 1 1 1 1 1 1 1 1 1 1 1 1 1 1 1 1 1 1 1 1 1 1 1 1 1 1
      1 1 1 1 1 1 1 1 1 1 1 1 1 1 1 1 1 1 1 1 1 1 1 1 1 1 1 1 1 1 1 1 1 1 1 1 1 1 1 1
   2  1 1 1 1 1 1 1 1 1 1 1 1 1 1 1 1 1 1 1 1 1 1 1 1 1 1 1 1 1 1 1 1 1 1 1 1 1 1 1 1 1 1 1 1 1 1 1 1 1 1 1 1 1 1 1 1 1 1 1 1
      1 1 1 1 1 1 1 1 1 1 1 1 1 1 1 1 1 1 1 1 1 1 1 1 1 1 1 1 1 1 1 1 1 1 1 1 1 1 1 1
   3  1 1 1 1 1 1 1 1 1 1 1 1 1 1 1 1 1 1 1 1 1 1 1 1 1 1 1 1 1 1 1 1 1 1 1 1 1 1 1 1 1 1 1 1 1 1 1 1 1 1 1 1 1 1 1 1 1 1 1 1
      1 1 1 1 1 1 1 1 1 1 1 1 1 1 1 1 1 1 1 1 1 1 1 1 1 1 1 1 1 1 1 1 1 1 1 1 1 1 1 1
   4  1 1 1 1 1 1 1 1 1 1 1 1 1 1 1 1 1 1 1 1 1 1 1 1 1 1 1 1 1 1 1 1 1 1 1 1 1 1 1 1 1 1 1 1 1 1 1 1 1 1 1 1 1 1 1 1 1 1 1 1
      1 1 1 1 1 1 1 1 1 1 1 1 1 1 1 1 1 1 1 1 1 1 1 1 1 1 1 1 1 1 1 1 1 1 1 1 1 1 1 1
   5  1 1 1 1 1 1 1 1 1 1 1 1 1 1 1 1 1 1 1 1 1 1 1 1 1 1 1 1 1 1 1 1 1 1 1 1 1 1 1 1 1 1 1 1 1 1 1 1 1 1 1 1 1 1 1 1 1 1 1 1
      1 1 1 1 1 1 1 1 1 1 1 1 1 1 1 1 1 1 1 1 1 1 1 1 1 1 1 1 1 1 1 1 1 1 1 1 1 1 1 1
   6  1 1 1 1 1 1 1 1 1 1 1 1 1 1 1 1 1 1 1 1 1 1 1 1 1 1 1 1 1 1 1 1 1 1 1 1 1 1 1 1 1 1 1 1 1 1 1 1 1 1 1 1 1 1 1 1 1 1 1 1
      1 1 1 1 1 1 1 1 1 1 1 1 1 1 1 1 1 1 1 1 1 1 1 1 1 1 1 1 1 1 1 1 1 1 1 1 1 1 1 1
   7  1 1 1 1 1 1 1 1 1 1 1 1 1 1 1 1 1 1 1 1 1 1 1 1 1 1 1 1 1 1 1 1 1 1 1 1 1 1 1 1 1 1 1 1 1 1 1 1 1 1 1 1 1 1 1 1 1 1 1 1
      1 1 1 1 1 1 1 1 1 1 1 1 1 1 1 1 1 1 1 1 1 1 1 1 1 1 1 1 1 1 1 1 1 1 1 1 1 1 1 1

 AQUIFER HEAD WILL BE SET TO -6999.0 AT ALL NO-FLOW NODES (IBOUND=0).


             INITIAL HEAD =   104.000     FOR LAYER   1

-- READING OC PACKAGE INPUT --

# testsfr2
# MODFLOW-2005 Example problem documented in:
#   Harbaugh, A.W., 2005, MODFLOW-2005, the U.S. Geological Survey modular ground-water model -- the Ground-Water Flow Process: U.S. Geological Survey Techniques and Methods 6-A16.
#   Harbaugh, A.W., Banta, E.R., Hill, M.C. and McDonald, M.G., 2000, MODFLOW-2000, The U.S. Geological Survey Modular Ground-Water Model - User Guide to Modularization Concepts and the Ground-Water Flow Process: U.S Geological Survey Open-File Report 2000-92, 121 p., https://doi.org/10.3133/ofr200092
#   Prudic. D.E., Konikow, L.F., and Banta, E.R., 2004, A new streamflow-routing (SFR1) package to simulate stream-aquifer interaction with MODFLOW-2000: U.S Geological Survey Open-File Report 2004-1042, 104 p., https://doi.org/10.3133/ofr20041042
#
#-----------------------------------------------------------------------------------------------------------------------------------------------------
# OC input file for hypothetical test simulation
# Test of SFR2 Package


 OUTPUT CONTROL IS SPECIFIED ONLY AT TIME STEPS FOR WHICH OUTPUT IS DESIRED
 COMPACT CELL-BY-CELL BUDGET FILES WILL BE WRITTEN
 HEAD PRINT FORMAT CODE IS  14    DRAWDOWN PRINT FORMAT CODE IS   0
 HEADS WILL BE SAVED ON UNIT    0    DRAWDOWNS WILL BE SAVED ON UNIT    0  WATER BUDGETs WILL BE SAVED ON UNIT 

 LPF -- LAYER-PROPERTY FLOW PACKAGE, VERSION OWHM
         INPUT READ FROM UNIT   42

-- READING LPF PACKAGE INPUT --

# testsfr2
# MODFLOW-2005 Example problem documented in:
#   Harbaugh, A.W., 2005, MODFLOW-2005, the U.S. Geological Survey modular ground-water model -- the Ground-Water Flow Process: U.S. Geological Survey Techniques and Methods 6-A16.
#   Harbaugh, A.W., Banta, E.R., Hill, M.C. and McDonald, M.G., 2000, MODFLOW-2000, The U.S. Geological Survey Modular Ground-Water Model - User Guide to Modularization Concepts and the Ground-Water Flow Process: U.S Geological Survey Open-File Report 2000-92, 121 p., https://doi.org/10.3133/ofr200092
#   Prudic. D.E., Konikow, L.F., and Banta, E.R., 2004, A new streamflow-routing (SFR1) package to simulate stream-aquifer interaction with MODFLOW-2000: U.S Geological Survey Open-File Report 2004-1042, 104 p., https://doi.org/10.3133/ofr20041042
#
#-----------------------------------------------------------------------------------------------------------------------------------------------------
# LPF Package input file for hypothetical test simulation
# Test of SFR2 Package

 HEAD AT CELLS THAT CONVERT TO DRY= -9.99000E+02
 No named parameters

   LAYER FLAGS:
 LAYER       LAYTYP        LAYAVG         CHANI        LAYVKA        LAYWET
 ---------------------------------------------------------------------------
    1             1             0     1.000E+00             0             0

   INTERPRETATION OF LAYER FLAGS:
                        INTERBLOCK     HORIZONTAL    DATA IN
         LAYER TYPE   TRANSMISSIVITY   ANISOTROPY   ARRAY VKA   WETTABILITY
 LAYER      (LAYTYP)      (LAYAVG)       (CHANI)      (LAYVKA)      (LAYWET)
 ---------------------------------------------------------------------------
    1   CONVERTIBLE      HARMONIC     1.000E+00    VERTICAL K  NON-WETTABLE

 WETTING CAPABILITY IS NOT ACTIVE IN ANY LAYER

    HYD. COND. ALONG ROWS =  8.000000E-04 FOR LAYER   1

      VERTICAL HYD. COND. =  6.000000E-06 FOR LAYER   1

         SPECIFIC STORAGE =   0.00000     FOR LAYER   1

           SPECIFIC YIELD =  0.200000     FOR LAYER   1

 GHB -- GENERAL-HEAD BOUNDARY PACKAGE, VERSION OWHM
         INPUT READ FROM UNIT   15

-- READING GHB PACKAGE INPUT --

# testsfr2
# MODFLOW-2005 Example problem documented in:
#   Harbaugh, A.W., 2005, MODFLOW-2005, the U.S. Geological Survey modular ground-water model -- the Ground-Water Flow Process: U.S. Geological Survey Techniques and Methods 6-A16.
#   Harbaugh, A.W., Banta, E.R., Hill, M.C. and McDonald, M.G., 2000, MODFLOW-2000, The U.S. Geological Survey Modular Ground-Water Model - User Guide to Modularization Concepts and the Ground-Water Flow Process: U.S Geological Survey Open-File Report 2000-92, 121 p., https://doi.org/10.3133/ofr200092
#   Prudic. D.E., Konikow, L.F., and Banta, E.R., 2004, A new streamflow-routing (SFR1) package to simulate stream-aquifer interaction with MODFLOW-2000: U.S Geological Survey Open-File Report 2004-1042, 104 p., https://doi.org/10.3133/ofr20041042
#
#      -Comments are preceded by a # sign
#
#-----------------------------------------------------------------------------------------------------------------------------------------------------
# GHB Package input file for hypothetical test simulation
# Test of SFR2 Package

 No named parameters

 NO TABFILE SPECIFIED FOR PACKAGE GHB  


 NO LINEFEEDS ARE SPECIFIED FOR PACKAGE GHB  

 CELL-BY-CELL FLOWS WILL BE PRINTED WHEN ICBCFL NOT 0
 MAXIMUM OF      7 ACTIVE GHB CELLS AT ONE TIME


     0 GHB parameters

-- READING SFR PACKAGE INPUT --

# testsfr2
# MODFLOW-2005 Example problem documented in:
#   Harbaugh, A.W., 2005, MODFLOW-2005, the U.S. Geological Survey modular ground-water model -- the Ground-Water Flow Process: U.S. Geological Survey Techniques and Methods 6-A16.
#   Harbaugh, A.W., Banta, E.R., Hill, M.C. and McDonald, M.G., 2000, MODFLOW-2000, The U.S. Geological Survey Modular Ground-Water Model - User Guide to Modularization Concepts and the Ground-Water Flow Process: U.S Geological Survey Open-File Report 2000-92, 121 p., https://doi.org/10.3133/ofr200092
#   Prudic. D.E., Konikow, L.F., and Banta, E.R., 2004, A new streamflow-routing (SFR1) package to simulate stream-aquifer interaction with MODFLOW-2000: U.S Geological Survey Open-File Report 2004-1042, 104 p., https://doi.org/10.3133/ofr20041042
#
#      -Comments are preceded by a # sign
#
#-----------------------------------------------------------------------------------------------------------------------------------------------------
# SFR2 Package input file for hypothetical test simulation
# Test of SFR2 Package; revised May 20, 2006


 SFR7 -- STREAMFLOW ROUTING PACKAGE, VERSION OWHM
         INPUT READ FROM UNIT   45

 NO TABFILE SPECIFIED FOR PACKAGE SFR  


 NO LINEFEEDS ARE SPECIFIED FOR PACKAGE SFR  


NSTRM<0 Indicates acts as surrogate to "REACHINPUT" Option in OPTIONS Block.Some stream information will be read by reach. This option replaces NSTRM<0



 NUMBER OF STREAM REACHES IS  100

 NUMBER OF STREAM SEGMENTS IS    1

 NUMBER OF STREAM PARAMETERS IS    0

 NUMBER OF STREAM SEGMENTS DEFINED USING PARAMETERS IS              0

 MAXIMUM ERROR FOR STREAM LEAKAGE RATES IS  1.00E-05

 CONSTANT FOR MANNINGS EQUATION IS  1.0000E+00

 HEAD_PREDICTOR_FACTOR (HNEW_FACTOR) IS  1.0000E+00





 OPTION FOR UNSATURATED FLOW BENEATH STREAMBEDS IS ACTIVE 




   STREAM NETWORK DESCRIPTION: 

   LAYER    ROW    COL   SEGMENT   REACH     LENGTH
                          NUMBER   NUMBER    IN CELL        
   --------------------------------------------------
      1      4      1       1        1    2.0000E+02
      1      4      2       1        2    2.0000E+02
      1      4      3       1        3    2.0000E+02
      1      4      4       1        4    2.0000E+02
      1      4      5       1        5    2.0000E+02
      1      4      6       1        6    2.0000E+02
      1      4      7       1        7    2.0000E+02
      1      4      8       1        8    2.0000E+02
      1      4      9       1        9    2.0000E+02
      1      4     10       1       10    2.0000E+02
      1      4     11       1       11    2.0000E+02
      1      4     12       1       12    2.0000E+02
      1      4     13       1       13    2.0000E+02
      1      4     14       1       14    2.0000E+02
      1      4     15       1       15    2.0000E+02
      1      4     16       1       16    2.0000E+02
      1      4     17       1       17    2.0000E+02
      1      4     18       1       18    2.0000E+02
      1      4     19       1       19    2.0000E+02
      1      4     20       1       20    2.0000E+02
      1      4     21       1       21    2.0000E+02
      1      4     22       1       22    2.0000E+02
      1      4     23       1       23    2.0000E+02
      1      4     24       1       24    2.0000E+02
      1      4     25       1       25    2.0000E+02
      1      4     26       1       26    2.0000E+02
      1      4     27       1       27    2.0000E+02
      1      4     28       1       28    2.0000E+02
      1      4     29       1       29    2.0000E+02
      1      4     30       1       30    2.0000E+02
      1      4     31       1       31    2.0000E+02
      1      4     32       1       32    2.0000E+02
      1      4     33       1       33    2.0000E+02
      1      4     34       1       34    2.0000E+02
      1      4     35       1       35    2.0000E+02
      1      4     36       1       36    2.0000E+02
      1      4     37       1       37    2.0000E+02
      1      4     38       1       38    2.0000E+02
      1      4     39       1       39    2.0000E+02
      1      4     40       1       40    2.0000E+02
      1      4     41       1       41    2.0000E+02
      1      4     42       1       42    2.0000E+02
      1      4     43       1       43    2.0000E+02
      1      4     44       1       44    2.0000E+02
      1      4     45       1       45    2.0000E+02
      1      4     46       1       46    2.0000E+02
      1      4     47       1       47    2.0000E+02
      1      4     48       1       48    2.0000E+02
      1      4     49       1       49    2.0000E+02
      1      4     50       1       50    2.0000E+02
      1      4     51       1       51    2.0000E+02
      1      4     52       1       52    2.0000E+02
      1      4     53       1       53    2.0000E+02
      1      4     54       1       54    2.0000E+02
      1      4     55       1       55    2.0000E+02
      1      4     56       1       56    2.0000E+02
      1      4     57       1       57    2.0000E+02
      1      4     58       1       58    2.0000E+02
      1      4     59       1       59    2.0000E+02
      1      4     60       1       60    2.0000E+02
      1      4     61       1       61    2.0000E+02
      1      4     62       1       62    2.0000E+02
      1      4     63       1       63    2.0000E+02
      1      4     64       1       64    2.0000E+02
      1      4     65       1       65    2.0000E+02
      1      4     66       1       66    2.0000E+02
      1      4     67       1       67    2.0000E+02
      1      4     68       1       68    2.0000E+02
      1      4     69       1       69    2.0000E+02
      1      4     70       1       70    2.0000E+02
      1      4     71       1       71    2.0000E+02
      1      4     72       1       72    2.0000E+02
      1      4     73       1       73    2.0000E+02
      1      4     74       1       74    2.0000E+02
      1      4     75       1       75    2.0000E+02
      1      4     76       1       76    2.0000E+02
      1      4     77       1       77    2.0000E+02
      1      4     78       1       78    2.0000E+02
      1      4     79       1       79    2.0000E+02
      1      4     80       1       80    2.0000E+02
      1      4     81       1       81    2.0000E+02
      1      4     82       1       82    2.0000E+02
      1      4     83       1       83    2.0000E+02
      1      4     84       1       84    2.0000E+02
      1      4     85       1       85    2.0000E+02
      1      4     86       1       86    2.0000E+02
      1      4     87       1       87    2.0000E+02
      1      4     88       1       88    2.0000E+02
      1      4     89       1       89    2.0000E+02
      1      4     90       1       90    2.0000E+02
      1      4     91       1       91    2.0000E+02
      1      4     92       1       92    2.0000E+02
      1      4     93       1       93    2.0000E+02
      1      4     94       1       94    2.0000E+02
      1      4     95       1       95    2.0000E+02
      1      4     96       1       96    2.0000E+02
      1      4     97       1       97    2.0000E+02
      1      4     98       1       98    2.0000E+02
      1      4     99       1       99    2.0000E+02
      1      4    100       1      100    2.0000E+02




-- READING GAG PACKAGE INPUT --

# testsfr2
# MODFLOW-2005 Example problem documented in:
#   Harbaugh, A.W., 2005, MODFLOW-2005, the U.S. Geological Survey modular ground-water model -- the Ground-Water Flow Process: U.S. Geological Survey Techniques and Methods 6-A16.
#   Harbaugh, A.W., Banta, E.R., Hill, M.C. and McDonald, M.G., 2000, MODFLOW-2000, The U.S. Geological Survey Modular Ground-Water Model - User Guide to Modularization Concepts and the Ground-Water Flow Process: U.S Geological Survey Open-File Report 2000
#   Prudic. D.E., Konikow, L.F., and Banta, E.R., 2004, A new streamflow-routing (SFR1) package to simulate stream-aquifer interaction with MODFLOW-2000: U.S Geological Survey Open-File Report 2004-1042, 104 p., https://doi.org/10.3133/ofr20041042
#
#      -Comments are preceded by a # sign
#
#-----------------------------------------------------------------------------------------------------------------------------------------------------




   8 GAGING STATIONS WERE SPECIFIED.
     (Lakes are identified by a negative value of the Lake Number)
     RECORDS WILL BE WRITTEN TO SEPARATE OUTPUT FILES REPRESENTED BY FOLLOWING UNIT NUMBERS:

 Stream Gages:
  GAGE #   SEGMENT   REACH   UNIT   OUTTYPE
       1       1      20      83       6
       2       1      20      84       7
       3       1      40      85       6
       4       1      40      86       7
       5       1      60      87       6
       6       1      60      88       7
       7       1      80      89       6
       8       1      80      90       7





 PCG -- CONJUGATE-GRADIENT SOLUTION PACKAGE, VERSION OWHM

-- READING PCG PACKAGE INPUT --

# testsfr2
# MODFLOW-2005 Example problem documented in:
#   Harbaugh, A.W., 2005, MODFLOW-2005, the U.S. Geological Survey modular ground-water model -- the Ground-Water Flow Process: U.S. Geological Survey Techniques and Methods 6-A16.
#   Harbaugh, A.W., Banta, E.R., Hill, M.C. and McDonald, M.G., 2000, MODFLOW-2000, The U.S. Geological Survey Modular Ground-Water Model - User Guide to Modularization Concepts and the Ground-Water Flow Process: U.S Geological Survey Open-File Report 2000-92, 121 p., https://doi.org/10.3133/ofr200092
#   Prudic. D.E., Konikow, L.F., and Banta, E.R., 2004, A new streamflow-routing (SFR1) package to simulate stream-aquifer interaction with MODFLOW-2000: U.S Geological Survey Open-File Report 2004-1042, 104 p., https://doi.org/10.3133/ofr20041042
#
#      -Comments are preceded by a # sign
#
#-----------------------------------------------------------------------------------------------------------------------------------------------------
# PCG Package input file for hypothetical test simulation
# Test of SFR2 Package

 MAXIMUM OF    300 CALLS OF SOLUTION ROUTINE
 MAXIMUM OF     20 INTERNAL ITERATIONS PER CALL TO SOLUTION ROUTINE
 MATRIX PRECONDITIONING TYPE :    1



                                    SOLUTION BY THE CONJUGATE-GRADIENT METHOD
                                   -------------------------------------------
                    MAXIMUM NUMBER OF CALLS TO PCG ROUTINE =      300
                        MAXIMUM ITERATIONS PER CALL TO PCG =       20
                               MATRIX PRECONDITIONING TYPE =        1
        RELAXATION FACTOR (ONLY USED WITH PRECOND. TYPE 1) =    0.90000E+00
 PARAMETER OF POLYNOMIAL PRECOND. = 2 (2) OR IS CALCULATED :        2
                         HEAD CHANGE CRITERION FOR CLOSURE =    0.10000E-05
                     RESIDUAL CHANGE CRITERION FOR CLOSURE =    0.10000E-04
            PCG HEAD AND RESIDUAL CHANGE PRINTOUT INTERVAL =      999
     PRINTING FROM SOLVER IS LIMITED(1) OR SUPPRESSED (>1) =        3
                            STEADY-STATE DAMPING PARAMETER =    0.96000E+00
                               TRANSIENT DAMPING PARAMETER =    0.96000E+00


########################################################################################################

                           WARNING_MESSAGE

         THE FOLLOWING COMMENTS WERE PASSED TO THE WARNING ROUTINE

THE DESRIPTION OF THE WARNING IS:

DIS PACKAGE: THE GROUND SURFACE ELEVATION WAS NOT SPECIFIED WITH THE KEYWORD "SURFACE_ELEVATION"

BEFORE LOADING THE "TOP" ARRAY FOR LAYER 1
NOR WAS IT DEFINED WITH ANOTHER PACKAGE   (e.g. FMPs GLOBAL DIMENSION KEYWORD "SURFACE_ELEVATION")

OneWater WILL SET THE GROUND SURFACE ELEVATION (GSE)
TO THE TOP ELEVATION OF THE UPPER MOST ACTIVE CELL OR THE DIS TOP OF LAY1.

NOTE THAT SFR DOES USE GSE FOR ALL DIVERSION SEGMENTS
   WHEN "IRDFLG" IS SET TO 2 or -2.

########################################################################################################



1
                            STRESS PERIOD NO.      1, LENGTH =   2592000.    
                            -----------------------------------------------

                              NUMBER OF TIME STEPS =    30

                               MULTIPLIER FOR DELT =     1.100

                            INITIAL TIME STEP SIZE =   15757.41    

PARAMETERS HAVE BEEN USED IN PACKAGES

THE CURRENT STORAGE FOR PARAMETERS IS: 
No. PARAMETER=         0 WITH MAX STORAGE (MXPAR)  OF      2000
No. CLUSTERS =         0 WITH MAX STORAGE (MXCLST) OF   2000000
No. INSTANCES=         0 WITH MAX STORAGE (MXINST) OF     50000

YOU CAN INCREASE/DECREASE STORAGE WITH BAS OPTION:
MAXPARAM  MXPAR  MXCLST MXINST

FYI, YOU CAN REDUCE RAM USUAGE WITH BAS OPTION
(NOTE THE THREE NUMBERS ARE A MINUMUM SIZE):
   MAXPARAM          1         1         1


 GHB PACKAGE STRESS PERIOD INFORMATION [BEFORE APPLICATION OF TABFILES]

 BOUND. NO. LAYER   ROW   COL     BHEAD      CONDUCTANCE         
 ----------------------------------------------------------------
      1      1      1    100   75.000000       4.1000000    
      2      1      2    100   75.000000       4.1000000    
      3      1      3    100   75.000000       4.1000000    
      4      1      4    100   75.000000       4.1000000    
      5      1      5    100   75.000000       4.1000000    
      6      1      6    100   75.000000       4.1000000    
      7      1      7    100   75.000000       4.1000000    

      7 GHB CELLS



 CLASSIFICATION & COUNT OF STREAM SEGMENTS BASED ON SOURCE OF INFLOW:

                HEADWATER     DIVERSION     RECEIVES TRIBUTARY FLOW
                ---------     ---------     -----------------------
                     1              0               0



                    INPUT DATA FOR EACH STREAM SEGMENT
 ---------------------------------------------------------------------------------------------

 SEGMENT    SEG.     INFLOW   OVERLAND   STREAM    STREAM   ICALC  OUTFLOW  DIVERSION PRIORITY
    NO.    LENGTH     RATE     RUNOFF      ET       PPT.    METH.  TO SEG.  FROM SEG.    NO.

      1  2.000E+04 3.000E-01 0.000E+00 0.000E+00 0.000E+00    2        0        0        0


         STREAMBED PROPERTIES AND STREAM DIMENSIONS

 SEGMENT     BED HYD. COND.      BED THICKNESS     ELEV.-TOP OF BED     WIDTH OF STREAM     DEPTH OF STREAM    STREAM ROUGHNESS    SAT. WATER CONT.    INT. WATER CONT.    BROOKS/COREY EPS.     UNSAT. HYD. COND.
    No.     UPPER     LOWER     UPPER     LOWER     UPPER     LOWER     UPPER     LOWER     UPPER     LOWER   CHANNEL      BANK     UPPER     LOWER     UPPER     LOWER     UPPER     LOWER     UPPER

     1  3.500E-07 3.500E-07 5.000E-01 5.000E-01 1.400E+02 1.100E+02                                         3.000E-02 4.000E-02 3.000E-01 3.000E-01 1.000E-01 1.000E-01 3.500E+00 3.500E+00 6.000E-06 6.000E-06

  EIGHT POINT CROSS-SECTION DATA FOR SEGMENTS WITH ICALC = 2
    X VALUES X VALUES START FROM LEFT SIDE LOOKING DOWNSTREAM

     SEGMENT NO.        X1        X2        X3        X4        X5        X6        X7        X8
            1      0.000E+00 2.000E+00 4.000E+00 6.000E+00 8.000E+00 1.000E+01 1.200E+01 1.400E+01

    Z VALUES ARE RELATIVE TO STREAMBED ELEVATION

     SEGMENT NO.          Z1        Z2        Z3        Z4        Z5        Z6        Z7        Z8
            1      6.000E+00 4.500E+00 3.500E+00 0.000E+00 3.000E-01 3.500E+00 4.500E+00 6.000E+00
 
 SOLVING FOR HEAD 

 NO OUTPUT CONTROL FOR STRESS PERIOD      1   TIME STEP     1
 
 SOLVING FOR HEAD 

 NO OUTPUT CONTROL FOR STRESS PERIOD      1   TIME STEP     2
 
 SOLVING FOR HEAD 

 NO OUTPUT CONTROL FOR STRESS PERIOD      1   TIME STEP     3
 
 SOLVING FOR HEAD 

 NO OUTPUT CONTROL FOR STRESS PERIOD      1   TIME STEP     4
 
 SOLVING FOR HEAD 

 NO OUTPUT CONTROL FOR STRESS PERIOD      1   TIME STEP     5
 
 SOLVING FOR HEAD 

 NO OUTPUT CONTROL FOR STRESS PERIOD      1   TIME STEP     6
 
 SOLVING FOR HEAD 

 NO OUTPUT CONTROL FOR STRESS PERIOD      1   TIME STEP     7
 
 SOLVING FOR HEAD 

 NO OUTPUT CONTROL FOR STRESS PERIOD      1   TIME STEP     8
 
 SOLVING FOR HEAD 

 NO OUTPUT CONTROL FOR STRESS PERIOD      1   TIME STEP     9
 
 SOLVING FOR HEAD 

 OUTPUT CONTROL FOR STRESS PERIOD      1   TIME STEP    10
    PRINT HEAD FOR ALL LAYERS
    PRINT BUDGET
    SAVE BUDGET

  HEAD DEP BOUNDS   PERIOD    1   STEP  10
 BOUNDARY      1   LAYER   1   ROW     1   COL   100   RATE   -0.300812       COND     4.10000    
 BOUNDARY      2   LAYER   1   ROW     2   COL   100   RATE   -0.300703       COND     4.10000    
 BOUNDARY      3   LAYER   1   ROW     3   COL   100   RATE   -0.297411       COND     4.10000    
 BOUNDARY      4   LAYER   1   ROW     4   COL   100   RATE   -0.207800       COND     4.10000    
 BOUNDARY      5   LAYER   1   ROW     5   COL   100   RATE   -0.297411       COND     4.10000    
 BOUNDARY      6   LAYER   1   ROW     6   COL   100   RATE   -0.300703       COND     4.10000    
 BOUNDARY      7   LAYER   1   ROW     7   COL   100   RATE   -0.300812       COND     4.10000    



 STREAM LISTING     PERIOD      1   STEP       10

 LAYER ROW COL. STREAM  RCH.   FLOW INTO    STREAM     FLOW OUT OF   OVRLND.    DIRECT     STREAM      STREAM      STREAM     STREAM  STREAMBED   FLOW TO   CHNG. UNSAT. 
                SEG.NO.  NO.   STRM. RCH.    LOSS       STRM. RCH.   RUNOFF     PRECIP       ET         HEAD        DEPTH      WIDTH  CONDCTNC.   WAT. TAB.

   1    4    1     1     1    3.0000E-01  3.4737E-04   2.9965E-01  0.000E+00  0.000E+00  0.000E+00  1.40279E+02  4.294E-01  2.326E+00  3.737E-04  0.000E+00  3.474E-04
   1    4    2     1     2    2.9965E-01  3.4724E-04   2.9931E-01  0.000E+00  0.000E+00  0.000E+00  1.39979E+02  4.292E-01  2.326E+00  3.737E-04  0.000E+00  3.472E-04
   1    4    3     1     3    2.9931E-01  3.4710E-04   2.9896E-01  0.000E+00  0.000E+00  0.000E+00  1.39679E+02  4.290E-01  2.326E+00  3.736E-04  0.000E+00  3.471E-04
   1    4    4     1     4    2.9896E-01  3.4696E-04   2.9861E-01  0.000E+00  0.000E+00  0.000E+00  1.39379E+02  4.288E-01  2.326E+00  3.735E-04  0.000E+00  3.470E-04
   1    4    5     1     5    2.9861E-01  3.4682E-04   2.9826E-01  0.000E+00  0.000E+00  0.000E+00  1.39079E+02  4.286E-01  2.325E+00  3.735E-04  0.000E+00  3.468E-04
   1    4    6     1     6    2.9826E-01  3.4669E-04   2.9792E-01  0.000E+00  0.000E+00  0.000E+00  1.38778E+02  4.284E-01  2.325E+00  3.734E-04  0.000E+00  3.467E-04
   1    4    7     1     7    2.9792E-01  3.4655E-04   2.9757E-01  0.000E+00  0.000E+00  0.000E+00  1.38478E+02  4.282E-01  2.325E+00  3.733E-04  0.000E+00  3.466E-04
   1    4    8     1     8    2.9757E-01  3.4641E-04   2.9722E-01  0.000E+00  0.000E+00  0.000E+00  1.38178E+02  4.280E-01  2.325E+00  3.733E-04  0.000E+00  3.464E-04
   1    4    9     1     9    2.9722E-01  3.4628E-04   2.9688E-01  0.000E+00  0.000E+00  0.000E+00  1.37878E+02  4.278E-01  2.324E+00  3.732E-04  0.000E+00  3.463E-04
   1    4   10     1    10    2.9688E-01  3.4614E-04   2.9653E-01  0.000E+00  0.000E+00  0.000E+00  1.37578E+02  4.276E-01  2.324E+00  3.732E-04  0.000E+00  3.461E-04
   1    4   11     1    11    2.9653E-01  3.4600E-04   2.9619E-01  0.000E+00  0.000E+00  0.000E+00  1.37277E+02  4.274E-01  2.324E+00  3.731E-04  0.000E+00  3.460E-04
   1    4   12     1    12    2.9619E-01  3.4586E-04   2.9584E-01  0.000E+00  0.000E+00  0.000E+00  1.36977E+02  4.272E-01  2.324E+00  3.730E-04  0.000E+00  3.459E-04
   1    4   13     1    13    2.9584E-01  3.4573E-04   2.9549E-01  0.000E+00  0.000E+00  0.000E+00  1.36677E+02  4.270E-01  2.323E+00  3.730E-04  0.000E+00  3.457E-04
   1    4   14     1    14    2.9549E-01  3.4559E-04   2.9515E-01  0.000E+00  0.000E+00  0.000E+00  1.36377E+02  4.268E-01  2.323E+00  3.729E-04  0.000E+00  3.456E-04
   1    4   15     1    15    2.9515E-01  3.4545E-04   2.9480E-01  0.000E+00  0.000E+00  0.000E+00  1.36077E+02  4.266E-01  2.323E+00  3.728E-04  0.000E+00  3.455E-04
   1    4   16     1    16    2.9480E-01  3.4531E-04   2.9446E-01  0.000E+00  0.000E+00  0.000E+00  1.35776E+02  4.264E-01  2.323E+00  3.728E-04  0.000E+00  3.453E-04
   1    4   17     1    17    2.9446E-01  3.4518E-04   2.9411E-01  0.000E+00  0.000E+00  0.000E+00  1.35476E+02  4.262E-01  2.322E+00  3.727E-04  0.000E+00  3.452E-04
   1    4   18     1    18    2.9411E-01  3.4504E-04   2.9377E-01  0.000E+00  0.000E+00  0.000E+00  1.35176E+02  4.260E-01  2.322E+00  3.726E-04  0.000E+00  3.450E-04
   1    4   19     1    19    2.9377E-01  3.4490E-04   2.9342E-01  0.000E+00  0.000E+00  0.000E+00  1.34876E+02  4.258E-01  2.322E+00  3.726E-04  0.000E+00  3.449E-04
   1    4   20     1    20    2.9342E-01  3.4477E-04   2.9308E-01  0.000E+00  0.000E+00  0.000E+00  1.34576E+02  4.256E-01  2.322E+00  3.725E-04  0.000E+00  3.448E-04
   1    4   21     1    21    2.9308E-01  3.4463E-04   2.9273E-01  0.000E+00  0.000E+00  0.000E+00  1.34275E+02  4.254E-01  2.321E+00  3.724E-04  0.000E+00  3.446E-04
   1    4   22     1    22    2.9273E-01  3.4449E-04   2.9239E-01  0.000E+00  0.000E+00  0.000E+00  1.33975E+02  4.252E-01  2.321E+00  3.724E-04  0.000E+00  3.445E-04
   1    4   23     1    23    2.9239E-01  3.4435E-04   2.9205E-01  0.000E+00  0.000E+00  0.000E+00  1.33675E+02  4.250E-01  2.321E+00  3.723E-04  0.000E+00  3.444E-04
   1    4   24     1    24    2.9205E-01  3.4422E-04   2.9170E-01  0.000E+00  0.000E+00  0.000E+00  1.33375E+02  4.248E-01  2.321E+00  3.722E-04  0.000E+00  3.442E-04
   1    4   25     1    25    2.9170E-01  3.4408E-04   2.9136E-01  0.000E+00  0.000E+00  0.000E+00  1.33075E+02  4.246E-01  2.320E+00  3.722E-04  0.000E+00  3.441E-04
   1    4   26     1    26    2.9136E-01  3.4394E-04   2.9101E-01  0.000E+00  0.000E+00  0.000E+00  1.32774E+02  4.244E-01  2.320E+00  3.721E-04  0.000E+00  3.439E-04
   1    4   27     1    27    2.9101E-01  3.4381E-04   2.9067E-01  0.000E+00  0.000E+00  0.000E+00  1.32474E+02  4.242E-01  2.320E+00  3.720E-04  0.000E+00  3.438E-04
   1    4   28     1    28    2.9067E-01  3.4367E-04   2.9033E-01  0.000E+00  0.000E+00  0.000E+00  1.32174E+02  4.240E-01  2.320E+00  3.720E-04  0.000E+00  3.437E-04
   1    4   29     1    29    2.9033E-01  3.4353E-04   2.8998E-01  0.000E+00  0.000E+00  0.000E+00  1.31874E+02  4.237E-01  2.319E+00  3.719E-04  0.000E+00  3.435E-04
   1    4   30     1    30    2.8998E-01  3.4339E-04   2.8964E-01  0.000E+00  0.000E+00  0.000E+00  1.31574E+02  4.235E-01  2.319E+00  3.718E-04  0.000E+00  3.434E-04
   1    4   31     1    31    2.8964E-01  3.4326E-04   2.8930E-01  0.000E+00  0.000E+00  0.000E+00  1.31273E+02  4.233E-01  2.319E+00  3.718E-04  0.000E+00  3.433E-04
   1    4   32     1    32    2.8930E-01  3.4312E-04   2.8895E-01  0.000E+00  0.000E+00  0.000E+00  1.30973E+02  4.231E-01  2.319E+00  3.717E-04  0.000E+00  3.431E-04
   1    4   33     1    33    2.8895E-01  3.4298E-04   2.8861E-01  0.000E+00  0.000E+00  0.000E+00  1.30673E+02  4.229E-01  2.319E+00  3.716E-04  0.000E+00  3.430E-04
   1    4   34     1    34    2.8861E-01  3.4285E-04   2.8827E-01  0.000E+00  0.000E+00  0.000E+00  1.30373E+02  4.227E-01  2.318E+00  3.716E-04  0.000E+00  3.428E-04
   1    4   35     1    35    2.8827E-01  3.4271E-04   2.8792E-01  0.000E+00  0.000E+00  0.000E+00  1.30073E+02  4.225E-01  2.318E+00  3.715E-04  0.000E+00  3.427E-04
   1    4   36     1    36    2.8792E-01  3.4257E-04   2.8758E-01  0.000E+00  0.000E+00  0.000E+00  1.29772E+02  4.223E-01  2.318E+00  3.714E-04  0.000E+00  3.426E-04
   1    4   37     1    37    2.8758E-01  3.4244E-04   2.8724E-01  0.000E+00  0.000E+00  0.000E+00  1.29472E+02  4.221E-01  2.318E+00  3.714E-04  0.000E+00  3.424E-04
   1    4   38     1    38    2.8724E-01  3.4230E-04   2.8690E-01  0.000E+00  0.000E+00  0.000E+00  1.29172E+02  4.219E-01  2.317E+00  3.713E-04  0.000E+00  3.423E-04
   1    4   39     1    39    2.8690E-01  3.4216E-04   2.8655E-01  0.000E+00  0.000E+00  0.000E+00  1.28872E+02  4.217E-01  2.317E+00  3.712E-04  0.000E+00  3.422E-04
   1    4   40     1    40    2.8655E-01  3.4203E-04   2.8621E-01  0.000E+00  0.000E+00  0.000E+00  1.28572E+02  4.215E-01  2.317E+00  3.712E-04  0.000E+00  3.420E-04
   1    4   41     1    41    2.8621E-01  3.4189E-04   2.8587E-01  0.000E+00  0.000E+00  0.000E+00  1.28271E+02  4.213E-01  2.317E+00  3.711E-04  0.000E+00  3.419E-04
   1    4   42     1    42    2.8587E-01  3.4175E-04   2.8553E-01  0.000E+00  0.000E+00  0.000E+00  1.27971E+02  4.211E-01  2.316E+00  3.710E-04  0.000E+00  3.418E-04
   1    4   43     1    43    2.8553E-01  3.4162E-04   2.8519E-01  0.000E+00  0.000E+00  0.000E+00  1.27671E+02  4.209E-01  2.316E+00  3.710E-04  0.000E+00  3.416E-04
   1    4   44     1    44    2.8519E-01  3.4148E-04   2.8485E-01  0.000E+00  0.000E+00  0.000E+00  1.27371E+02  4.207E-01  2.316E+00  3.709E-04  0.000E+00  3.415E-04
   1    4   45     1    45    2.8485E-01  3.4134E-04   2.8450E-01  0.000E+00  0.000E+00  0.000E+00  1.27070E+02  4.205E-01  2.316E+00  3.708E-04  0.000E+00  3.413E-04
   1    4   46     1    46    2.8450E-01  3.4121E-04   2.8416E-01  0.000E+00  0.000E+00  0.000E+00  1.26770E+02  4.203E-01  2.315E+00  3.708E-04  0.000E+00  3.412E-04
   1    4   47     1    47    2.8416E-01  3.4107E-04   2.8382E-01  0.000E+00  0.000E+00  0.000E+00  1.26470E+02  4.201E-01  2.315E+00  3.707E-04  0.000E+00  3.411E-04
   1    4   48     1    48    2.8382E-01  3.4093E-04   2.8348E-01  0.000E+00  0.000E+00  0.000E+00  1.26170E+02  4.199E-01  2.315E+00  3.706E-04  0.000E+00  3.409E-04
   1    4   49     1    49    2.8348E-01  3.4080E-04   2.8314E-01  0.000E+00  0.000E+00  0.000E+00  1.25870E+02  4.197E-01  2.315E+00  3.706E-04  0.000E+00  3.408E-04
   1    4   50     1    50    2.8314E-01  3.4066E-04   2.8280E-01  0.000E+00  0.000E+00  0.000E+00  1.25569E+02  4.195E-01  2.314E+00  3.705E-04  0.000E+00  3.407E-04
   1    4   51     1    51    2.8280E-01  3.4052E-04   2.8246E-01  0.000E+00  0.000E+00  0.000E+00  1.25269E+02  4.193E-01  2.314E+00  3.704E-04  0.000E+00  3.405E-04
   1    4   52     1    52    2.8246E-01  3.4039E-04   2.8212E-01  0.000E+00  0.000E+00  0.000E+00  1.24969E+02  4.191E-01  2.314E+00  3.704E-04  0.000E+00  3.404E-04
   1    4   53     1    53    2.8212E-01  3.4025E-04   2.8178E-01  0.000E+00  0.000E+00  0.000E+00  1.24669E+02  4.189E-01  2.314E+00  3.703E-04  0.000E+00  3.402E-04
   1    4   54     1    54    2.8178E-01  3.4011E-04   2.8144E-01  0.000E+00  0.000E+00  0.000E+00  1.24369E+02  4.187E-01  2.313E+00  3.702E-04  0.000E+00  3.401E-04
   1    4   55     1    55    2.8144E-01  3.3998E-04   2.8110E-01  0.000E+00  0.000E+00  0.000E+00  1.24068E+02  4.185E-01  2.313E+00  3.702E-04  0.000E+00  3.400E-04
   1    4   56     1    56    2.8110E-01  3.3984E-04   2.8076E-01  0.000E+00  0.000E+00  0.000E+00  1.23768E+02  4.182E-01  2.313E+00  3.701E-04  0.000E+00  3.398E-04
   1    4   57     1    57    2.8076E-01  3.3970E-04   2.8042E-01  0.000E+00  0.000E+00  0.000E+00  1.23468E+02  4.180E-01  2.313E+00  3.700E-04  0.000E+00  3.397E-04
   1    4   58     1    58    2.8042E-01  3.3957E-04   2.8008E-01  0.000E+00  0.000E+00  0.000E+00  1.23168E+02  4.178E-01  2.312E+00  3.700E-04  0.000E+00  3.396E-04
   1    4   59     1    59    2.8008E-01  3.3943E-04   2.7974E-01  0.000E+00  0.000E+00  0.000E+00  1.22868E+02  4.176E-01  2.312E+00  3.699E-04  0.000E+00  3.394E-04
   1    4   60     1    60    2.7974E-01  3.3929E-04   2.7940E-01  0.000E+00  0.000E+00  0.000E+00  1.22567E+02  4.174E-01  2.312E+00  3.698E-04  0.000E+00  3.393E-04
   1    4   61     1    61    2.7940E-01  3.3916E-04   2.7906E-01  0.000E+00  0.000E+00  0.000E+00  1.22267E+02  4.172E-01  2.312E+00  3.698E-04  0.000E+00  3.392E-04
   1    4   62     1    62    2.7906E-01  3.3902E-04   2.7872E-01  0.000E+00  0.000E+00  0.000E+00  1.21967E+02  4.170E-01  2.311E+00  3.697E-04  0.000E+00  3.390E-04
   1    4   63     1    63    2.7872E-01  3.3889E-04   2.7838E-01  0.000E+00  0.000E+00  0.000E+00  1.21667E+02  4.168E-01  2.311E+00  3.696E-04  0.000E+00  3.389E-04
   1    4   64     1    64    2.7838E-01  3.3875E-04   2.7804E-01  0.000E+00  0.000E+00  0.000E+00  1.21367E+02  4.166E-01  2.311E+00  3.696E-04  0.000E+00  3.387E-04
   1    4   65     1    65    2.7804E-01  3.3861E-04   2.7771E-01  0.000E+00  0.000E+00  0.000E+00  1.21066E+02  4.164E-01  2.311E+00  3.695E-04  0.000E+00  3.386E-04
   1    4   66     1    66    2.7771E-01  3.3848E-04   2.7737E-01  0.000E+00  0.000E+00  0.000E+00  1.20766E+02  4.162E-01  2.310E+00  3.694E-04  0.000E+00  3.385E-04
   1    4   67     1    67    2.7737E-01  3.3834E-04   2.7703E-01  0.000E+00  0.000E+00  0.000E+00  1.20466E+02  4.160E-01  2.310E+00  3.694E-04  0.000E+00  3.383E-04
   1    4   68     1    68    2.7703E-01  3.3820E-04   2.7669E-01  0.000E+00  0.000E+00  0.000E+00  1.20166E+02  4.158E-01  2.310E+00  3.693E-04  0.000E+00  3.382E-04
   1    4   69     1    69    2.7669E-01  3.3807E-04   2.7635E-01  0.000E+00  0.000E+00  0.000E+00  1.19866E+02  4.156E-01  2.310E+00  3.692E-04  0.000E+00  3.381E-04
   1    4   70     1    70    2.7635E-01  3.3793E-04   2.7601E-01  0.000E+00  0.000E+00  0.000E+00  1.19565E+02  4.154E-01  2.309E+00  3.692E-04  0.000E+00  3.379E-04
   1    4   71     1    71    2.7601E-01  3.3779E-04   2.7568E-01  0.000E+00  0.000E+00  0.000E+00  1.19265E+02  4.152E-01  2.309E+00  3.691E-04  0.000E+00  3.378E-04
   1    4   72     1    72    2.7568E-01  3.3766E-04   2.7534E-01  0.000E+00  0.000E+00  0.000E+00  1.18965E+02  4.150E-01  2.309E+00  3.690E-04  0.000E+00  3.377E-04
   1    4   73     1    73    2.7534E-01  3.3752E-04   2.7500E-01  0.000E+00  0.000E+00  0.000E+00  1.18665E+02  4.148E-01  2.309E+00  3.690E-04  0.000E+00  3.375E-04
   1    4   74     1    74    2.7500E-01  3.3739E-04   2.7466E-01  0.000E+00  0.000E+00  0.000E+00  1.18365E+02  4.146E-01  2.309E+00  3.689E-04  0.000E+00  3.374E-04
   1    4   75     1    75    2.7466E-01  3.3725E-04   2.7433E-01  0.000E+00  0.000E+00  0.000E+00  1.18064E+02  4.144E-01  2.308E+00  3.688E-04  0.000E+00  3.373E-04
   1    4   76     1    76    2.7433E-01  3.3711E-04   2.7399E-01  0.000E+00  0.000E+00  0.000E+00  1.17764E+02  4.142E-01  2.308E+00  3.688E-04  0.000E+00  3.371E-04
   1    4   77     1    77    2.7399E-01  3.3698E-04   2.7365E-01  0.000E+00  0.000E+00  0.000E+00  1.17464E+02  4.140E-01  2.308E+00  3.687E-04  0.000E+00  3.370E-04
   1    4   78     1    78    2.7365E-01  3.3684E-04   2.7332E-01  0.000E+00  0.000E+00  0.000E+00  1.17164E+02  4.138E-01  2.308E+00  3.686E-04  0.000E+00  3.368E-04
   1    4   79     1    79    2.7332E-01  3.3671E-04   2.7298E-01  0.000E+00  0.000E+00  0.000E+00  1.16864E+02  4.136E-01  2.307E+00  3.686E-04  0.000E+00  3.367E-04
   1    4   80     1    80    2.7298E-01  3.3657E-04   2.7264E-01  0.000E+00  0.000E+00  0.000E+00  1.16563E+02  4.134E-01  2.307E+00  3.685E-04  0.000E+00  3.366E-04
   1    4   81     1    81    2.7264E-01  3.3643E-04   2.7231E-01  0.000E+00  0.000E+00  0.000E+00  1.16263E+02  4.132E-01  2.307E+00  3.684E-04  0.000E+00  3.364E-04
   1    4   82     1    82    2.7231E-01  3.3630E-04   2.7197E-01  0.000E+00  0.000E+00  0.000E+00  1.15963E+02  4.129E-01  2.307E+00  3.684E-04  0.000E+00  3.363E-04
   1    4   83     1    83    2.7197E-01  3.3616E-04   2.7163E-01  0.000E+00  0.000E+00  0.000E+00  1.15663E+02  4.127E-01  2.306E+00  3.683E-04  0.000E+00  3.362E-04
   1    4   84     1    84    2.7163E-01  3.3603E-04   2.7130E-01  0.000E+00  0.000E+00  0.000E+00  1.15363E+02  4.125E-01  2.306E+00  3.682E-04  0.000E+00  3.360E-04
   1    4   85     1    85    2.7130E-01  3.3589E-04   2.7096E-01  0.000E+00  0.000E+00  0.000E+00  1.15062E+02  4.123E-01  2.306E+00  3.682E-04  0.000E+00  3.359E-04
   1    4   86     1    86    2.7096E-01  3.3575E-04   2.7063E-01  0.000E+00  0.000E+00  0.000E+00  1.14762E+02  4.121E-01  2.306E+00  3.681E-04  0.000E+00  3.358E-04
   1    4   87     1    87    2.7063E-01  3.3562E-04   2.7029E-01  0.000E+00  0.000E+00  0.000E+00  1.14462E+02  4.119E-01  2.305E+00  3.680E-04  0.000E+00  3.356E-04
   1    4   88     1    88    2.7029E-01  3.3548E-04   2.6996E-01  0.000E+00  0.000E+00  0.000E+00  1.14162E+02  4.117E-01  2.305E+00  3.680E-04  0.000E+00  3.355E-04
   1    4   89     1    89    2.6996E-01  3.3535E-04   2.6962E-01  0.000E+00  0.000E+00  0.000E+00  1.13862E+02  4.115E-01  2.305E+00  3.679E-04  0.000E+00  3.353E-04
   1    4   90     1    90    2.6962E-01  3.3521E-04   2.6928E-01  0.000E+00  0.000E+00  0.000E+00  1.13561E+02  4.113E-01  2.305E+00  3.678E-04  0.000E+00  3.352E-04
   1    4   91     1    91    2.6928E-01  3.3507E-04   2.6895E-01  0.000E+00  0.000E+00  0.000E+00  1.13261E+02  4.111E-01  2.304E+00  3.678E-04  0.000E+00  3.351E-04
   1    4   92     1    92    2.6895E-01  3.3494E-04   2.6861E-01  0.000E+00  0.000E+00  0.000E+00  1.12961E+02  4.109E-01  2.304E+00  3.677E-04  0.000E+00  3.349E-04
   1    4   93     1    93    2.6861E-01  3.3480E-04   2.6828E-01  0.000E+00  0.000E+00  0.000E+00  1.12661E+02  4.107E-01  2.304E+00  3.676E-04  0.000E+00  3.348E-04
   1    4   94     1    94    2.6828E-01  3.3467E-04   2.6795E-01  0.000E+00  0.000E+00  0.000E+00  1.12360E+02  4.105E-01  2.304E+00  3.676E-04  0.000E+00  3.347E-04
   1    4   95     1    95    2.6795E-01  3.3453E-04   2.6761E-01  0.000E+00  0.000E+00  0.000E+00  1.12060E+02  4.103E-01  2.303E+00  3.675E-04  0.000E+00  3.345E-04
   1    4   96     1    96    2.6761E-01  3.3440E-04   2.6728E-01  0.000E+00  0.000E+00  0.000E+00  1.11760E+02  4.101E-01  2.303E+00  3.674E-04  0.000E+00  3.344E-04
   1    4   97     1    97    2.6728E-01  3.3426E-04   2.6694E-01  0.000E+00  0.000E+00  0.000E+00  1.11460E+02  4.099E-01  2.303E+00  3.674E-04  0.000E+00  3.343E-04
   1    4   98     1    98    2.6694E-01  3.3412E-04   2.6661E-01  0.000E+00  0.000E+00  0.000E+00  1.11160E+02  4.097E-01  2.303E+00  3.673E-04  0.000E+00  3.341E-04
   1    4   99     1    99    2.6661E-01  3.3399E-04   2.6627E-01  0.000E+00  0.000E+00  0.000E+00  1.10859E+02  4.095E-01  2.302E+00  3.672E-04  0.000E+00  3.340E-04
   1    4  100     1   100    2.6627E-01  3.3385E-04   2.6594E-01  0.000E+00  0.000E+00  0.000E+00  1.10559E+02  4.093E-01  2.302E+00  3.672E-04  0.000E+00  3.339E-04



1
  VOLUMETRIC BUDGET FOR UNSATURATED ZONE BENEATH STREAMS AT END OF TIME STEP    10 STRESS PERIOD   1
  ------------------------------------------------------------------------------------------------

    CUMULATIVE VOLUMES             L**3    RATES FOR THIS TIME STEP         L**3/T
    ------------------                     ------------------------


          STREAM LOSS =         8553.5412            STREAM LOSS =        3.4060E-02
    CHANGE IN STORAGE =         8553.5412      CHANGE IN STORAGE =        3.4060E-02
       RECHARGE TO GW =            0.0000         RECHARGE TO GW =            0.0000

             TOTAL IN =         8553.5412               TOTAL IN =        3.4060E-02

            TOTAL OUT =         8553.5412              TOTAL OUT =        3.4060E-02

             IN - OUT =       -6.7303E-11               IN - OUT =            0.0000

  PERCENT DISCREPANCY =           -0.00      PERCENT DISCREPANCY =             0.00



1
              HEAD IN LAYER   1 AT END OF TIME STEP  10 IN STRESS PERIOD    1
  ---------------------------------------------------------------------------

          1      2      3      4      5      6      7      8      9     10
         11     12     13     14     15     16     17     18     19     20
         21     22     23     24     25     26     27     28     29     30
         31     32     33     34     35     36     37     38     39     40
         41     42     43     44     45     46     47     48     49     50
         51     52     53     54     55     56     57     58     59     60
         61     62     63     64     65     66     67     68     69     70
         71     72     73     74     75     76     77     78     79     80
         81     82     83     84     85     86     87     88     89     90
         91     92     93     94     95     96     97     98     99    100
 .........................................................................
   1   104.0  104.0  104.0  104.0  104.0  104.0  104.0  104.0  104.0  104.0
       104.0  104.0  104.0  104.0  104.0  104.0  104.0  104.0  104.0  104.0
       104.0  104.0  104.0  104.0  104.0  104.0  104.0  104.0  104.0  104.0
       104.0  104.0  104.0  104.0  104.0  104.0  104.0  104.0  104.0  104.0
       104.0  104.0  104.0  104.0  104.0  104.0  104.0  104.0  104.0  104.0
       104.0  104.0  104.0  104.0  104.0  104.0  104.0  104.0  104.0  104.0
       104.0  104.0  104.0  104.0  104.0  104.0  104.0  104.0  104.0  104.0
       104.0  104.0  104.0  104.0  104.0  104.0  104.0  104.0  104.0  104.0
       104.0  104.0  103.9  103.8  103.7  103.5  103.3  103.1  102.9  102.6
       102.3  102.0  101.6  101.0  100.4   99.3   96.9   92.6   85.5   75.1
   2   104.0  104.0  104.0  104.0  104.0  104.0  104.0  104.0  104.0  104.0
       104.0  104.0  104.0  104.0  104.0  104.0  104.0  104.0  104.0  104.0
       104.0  104.0  104.0  104.0  104.0  104.0  104.0  104.0  104.0  104.0
       104.0  104.0  104.0  104.0  104.0  104.0  104.0  104.0  104.0  104.0
       104.0  104.0  104.0  104.0  104.0  104.0  104.0  104.0  104.0  104.0
       104.0  104.0  104.0  104.0  104.0  104.0  104.0  104.0  104.0  104.0
       104.0  104.0  104.0  104.0  104.0  104.0  104.0  104.0  104.0  104.0
       104.0  104.0  104.0  104.0  104.0  104.0  104.0  104.0  104.0  104.0
       104.0  104.0  103.9  103.8  103.7  103.5  103.3  103.1  102.9  102.6
       102.3  102.0  101.6  101.0  100.4   99.3   96.9   92.6   85.5   75.1
   3   104.0  104.0  104.0  104.0  104.0  104.0  104.0  104.0  104.0  104.0
       104.0  104.0  104.0  104.0  104.0  104.0  104.0  104.0  104.0  104.0
       104.0  104.0  104.0  104.0  104.0  104.0  104.0  104.0  104.0  104.0
       104.0  104.0  104.0  104.0  104.0  104.0  104.0  104.0  104.0  104.0
       104.0  104.0  104.0  104.0  104.0  104.0  104.0  104.0  104.0  104.0
       104.0  104.0  104.0  104.0  104.0  104.0  104.0  104.0  104.0  104.0
       104.0  104.0  104.0  104.0  104.0  104.0  104.0  104.0  104.0  104.0
       104.0  104.0  104.0  104.0  104.0  104.0  104.0  104.0  104.0  104.0
       104.0  104.0  103.9  103.8  103.7  103.5  103.3  103.1  102.9  102.6
       102.3  102.0  101.6  101.0  100.4   99.3   96.9   92.6   85.5   75.1
   4   104.0  104.0  104.0  104.0  104.0  104.0  104.0  104.0  104.0  104.0
       104.0  104.0  104.0  104.0  104.0  104.0  104.0  104.0  104.0  104.0
       104.0  104.0  104.0  104.0  104.0  104.0  104.0  104.0  104.0  104.0
       104.0  104.0  104.0  104.0  104.0  104.0  104.0  104.0  104.0  104.0
       104.0  104.0  104.0  104.0  104.0  104.0  104.0  104.0  104.0  104.0
       104.0  104.0  104.0  104.0  104.0  104.0  104.0  104.0  104.0  104.0
       104.0  104.0  104.0  104.0  104.0  104.0  104.0  104.0  104.0  104.0
       104.0  104.0  104.0  104.0  104.0  104.0  104.0  104.0  104.0  104.0
       104.0  104.0  103.9  103.8  103.7  103.5  103.3  103.1  102.9  102.6
       102.3  102.0  101.6  101.0  100.4   99.3   96.9   92.6   85.5   75.1
   5   104.0  104.0  104.0  104.0  104.0  104.0  104.0  104.0  104.0  104.0
       104.0  104.0  104.0  104.0  104.0  104.0  104.0  104.0  104.0  104.0
       104.0  104.0  104.0  104.0  104.0  104.0  104.0  104.0  104.0  104.0
       104.0  104.0  104.0  104.0  104.0  104.0  104.0  104.0  104.0  104.0
       104.0  104.0  104.0  104.0  104.0  104.0  104.0  104.0  104.0  104.0
       104.0  104.0  104.0  104.0  104.0  104.0  104.0  104.0  104.0  104.0
       104.0  104.0  104.0  104.0  104.0  104.0  104.0  104.0  104.0  104.0
       104.0  104.0  104.0  104.0  104.0  104.0  104.0  104.0  104.0  104.0
       104.0  104.0  103.9  103.8  103.7  103.5  103.3  103.1  102.9  102.6
       102.3  102.0  101.6  101.0  100.4   99.3   96.9   92.6   85.5   75.1
   6   104.0  104.0  104.0  104.0  104.0  104.0  104.0  104.0  104.0  104.0
       104.0  104.0  104.0  104.0  104.0  104.0  104.0  104.0  104.0  104.0
       104.0  104.0  104.0  104.0  104.0  104.0  104.0  104.0  104.0  104.0
       104.0  104.0  104.0  104.0  104.0  104.0  104.0  104.0  104.0  104.0
       104.0  104.0  104.0  104.0  104.0  104.0  104.0  104.0  104.0  104.0
       104.0  104.0  104.0  104.0  104.0  104.0  104.0  104.0  104.0  104.0
       104.0  104.0  104.0  104.0  104.0  104.0  104.0  104.0  104.0  104.0
       104.0  104.0  104.0  104.0  104.0  104.0  104.0  104.0  104.0  104.0
       104.0  104.0  103.9  103.8  103.7  103.5  103.3  103.1  102.9  102.6
       102.3  102.0  101.6  101.0  100.4   99.3   96.9   92.6   85.5   75.1
   7   104.0  104.0  104.0  104.0  104.0  104.0  104.0  104.0  104.0  104.0
       104.0  104.0  104.0  104.0  104.0  104.0  104.0  104.0  104.0  104.0
       104.0  104.0  104.0  104.0  104.0  104.0  104.0  104.0  104.0  104.0
       104.0  104.0  104.0  104.0  104.0  104.0  104.0  104.0  104.0  104.0
       104.0  104.0  104.0  104.0  104.0  104.0  104.0  104.0  104.0  104.0
       104.0  104.0  104.0  104.0  104.0  104.0  104.0  104.0  104.0  104.0
       104.0  104.0  104.0  104.0  104.0  104.0  104.0  104.0  104.0  104.0
       104.0  104.0  104.0  104.0  104.0  104.0  104.0  104.0  104.0  104.0
       104.0  104.0  103.9  103.8  103.7  103.5  103.3  103.1  102.9  102.6
       102.3  102.0  101.6  101.0  100.4   99.3   96.9   92.6   85.5   75.1



  -------------------------------------------------------------------------------------
  VOLUMETRIC BUDGET FOR ENTIRE MODEL AT END OF TIME STEP   10 IN STRESS PERIOD      1
  -------------------------------------------------------------------------------------

     CUMULATIVE VOLUMES      L**3       RATES FOR THIS TIME STEP      L**3/T
     ------------------                 ------------------------

           IN:                                      IN:
           ---                                      ---
             STORAGE =     1302251.8904               STORAGE =           2.0057
       CONSTANT HEAD =           0.0000         CONSTANT HEAD =           0.0000
     HEAD DEP BOUNDS =           0.0000       HEAD DEP BOUNDS =           0.0000
      STREAM LEAKAGE =           0.0000        STREAM LEAKAGE =           0.0000

            TOTAL IN =     1302251.8904              TOTAL IN =           2.0057

          OUT:                                     OUT:
          ----                                     ----
             STORAGE =           0.0000               STORAGE =           0.0000
       CONSTANT HEAD =           0.0000         CONSTANT HEAD =           0.0000
     HEAD DEP BOUNDS =     1302251.9327       HEAD DEP BOUNDS =           2.0057
      STREAM LEAKAGE =           0.0000        STREAM LEAKAGE =           0.0000

           TOTAL OUT =     1302251.9327             TOTAL OUT =           2.0057

            IN - OUT =      -4.2301E-02              IN - OUT =      -4.1991E-09

 PERCENT DISCREPANCY =          -0.00     PERCENT DISCREPANCY =          -0.00


          TIME SUMMARY AT END OF TIME STEP    10 IN STRESS PERIOD      1
                    SECONDS     MINUTES      HOURS       DAYS        YEARS
                    -----------------------------------------------------------
   TIME STEP LENGTH  37155.      619.25      10.321     0.43004     1.17738E-03
 STRESS PERIOD TIME 2.51133E+05  4185.5      69.759      2.9066     7.95791E-03
         TOTAL TIME 2.51133E+05  4185.5      69.759      2.9066     7.95791E-03
 
 
 SOLVING FOR HEAD 

 NO OUTPUT CONTROL FOR STRESS PERIOD      1   TIME STEP    11
 
 SOLVING FOR HEAD 

 NO OUTPUT CONTROL FOR STRESS PERIOD      1   TIME STEP    12
 
 SOLVING FOR HEAD 

 NO OUTPUT CONTROL FOR STRESS PERIOD      1   TIME STEP    13
 
 SOLVING FOR HEAD 

 NO OUTPUT CONTROL FOR STRESS PERIOD      1   TIME STEP    14
 
 SOLVING FOR HEAD 

 NO OUTPUT CONTROL FOR STRESS PERIOD      1   TIME STEP    15
 
 SOLVING FOR HEAD 

 NO OUTPUT CONTROL FOR STRESS PERIOD      1   TIME STEP    16
 
 SOLVING FOR HEAD 

 NO OUTPUT CONTROL FOR STRESS PERIOD      1   TIME STEP    17
 
 SOLVING FOR HEAD 

 NO OUTPUT CONTROL FOR STRESS PERIOD      1   TIME STEP    18
 
 SOLVING FOR HEAD 

 NO OUTPUT CONTROL FOR STRESS PERIOD      1   TIME STEP    19
 
 SOLVING FOR HEAD 

 NO OUTPUT CONTROL FOR STRESS PERIOD      1   TIME STEP    20
 
 SOLVING FOR HEAD 

 NO OUTPUT CONTROL FOR STRESS PERIOD      1   TIME STEP    21
 
 SOLVING FOR HEAD 

 NO OUTPUT CONTROL FOR STRESS PERIOD      1   TIME STEP    22
 
 SOLVING FOR HEAD 

 NO OUTPUT CONTROL FOR STRESS PERIOD      1   TIME STEP    23
 
 SOLVING FOR HEAD 

 NO OUTPUT CONTROL FOR STRESS PERIOD      1   TIME STEP    24
 
 SOLVING FOR HEAD 

 NO OUTPUT CONTROL FOR STRESS PERIOD      1   TIME STEP    25
 
 SOLVING FOR HEAD 

 NO OUTPUT CONTROL FOR STRESS PERIOD      1   TIME STEP    26
 
 SOLVING FOR HEAD 

 NO OUTPUT CONTROL FOR STRESS PERIOD      1   TIME STEP    27
 
 SOLVING FOR HEAD 

 NO OUTPUT CONTROL FOR STRESS PERIOD      1   TIME STEP    28
 
 SOLVING FOR HEAD 

 NO OUTPUT CONTROL FOR STRESS PERIOD      1   TIME STEP    29
 
 SOLVING FOR HEAD 

 OUTPUT CONTROL FOR STRESS PERIOD      1   TIME STEP    30
    PRINT HEAD FOR ALL LAYERS
    PRINT BUDGET
    SAVE BUDGET

  HEAD DEP BOUNDS   PERIOD    1   STEP  30
 BOUNDARY      1   LAYER   1   ROW     1   COL   100   RATE   -0.100818       COND     4.10000    
 BOUNDARY      2   LAYER   1   ROW     2   COL   100   RATE   -0.100782       COND     4.10000    
 BOUNDARY      3   LAYER   1   ROW     3   COL   100   RATE   -0.996817E-01   COND     4.10000    
 BOUNDARY      4   LAYER   1   ROW     4   COL   100   RATE   -0.696762E-01   COND     4.10000    
 BOUNDARY      5   LAYER   1   ROW     5   COL   100   RATE   -0.996817E-01   COND     4.10000    
 BOUNDARY      6   LAYER   1   ROW     6   COL   100   RATE   -0.100782       COND     4.10000    
 BOUNDARY      7   LAYER   1   ROW     7   COL   100   RATE   -0.100818       COND     4.10000    



 STREAM LISTING     PERIOD      1   STEP       30

 LAYER ROW COL. STREAM  RCH.   FLOW INTO    STREAM     FLOW OUT OF   OVRLND.    DIRECT     STREAM      STREAM      STREAM     STREAM  STREAMBED   FLOW TO   CHNG. UNSAT. 
                SEG.NO.  NO.   STRM. RCH.    LOSS       STRM. RCH.   RUNOFF     PRECIP       ET         HEAD        DEPTH      WIDTH  CONDCTNC.   WAT. TAB.

   1    4    1     1     1    3.0000E-01  3.4737E-04   2.9965E-01  0.000E+00  0.000E+00  0.000E+00  1.40279E+02  4.294E-01  2.326E+00  3.737E-04  0.000E+00  3.474E-04
   1    4    2     1     2    2.9965E-01  3.4724E-04   2.9931E-01  0.000E+00  0.000E+00  0.000E+00  1.39979E+02  4.292E-01  2.326E+00  3.737E-04  0.000E+00  3.472E-04
   1    4    3     1     3    2.9931E-01  3.4710E-04   2.9896E-01  0.000E+00  0.000E+00  0.000E+00  1.39679E+02  4.290E-01  2.326E+00  3.736E-04  0.000E+00  3.471E-04
   1    4    4     1     4    2.9896E-01  3.4696E-04   2.9861E-01  0.000E+00  0.000E+00  0.000E+00  1.39379E+02  4.288E-01  2.326E+00  3.735E-04  0.000E+00  3.470E-04
   1    4    5     1     5    2.9861E-01  3.4682E-04   2.9826E-01  0.000E+00  0.000E+00  0.000E+00  1.39079E+02  4.286E-01  2.325E+00  3.735E-04  0.000E+00  3.468E-04
   1    4    6     1     6    2.9826E-01  3.4669E-04   2.9792E-01  0.000E+00  0.000E+00  0.000E+00  1.38778E+02  4.284E-01  2.325E+00  3.734E-04  0.000E+00  3.467E-04
   1    4    7     1     7    2.9792E-01  3.4655E-04   2.9757E-01  0.000E+00  0.000E+00  0.000E+00  1.38478E+02  4.282E-01  2.325E+00  3.733E-04  0.000E+00  3.466E-04
   1    4    8     1     8    2.9757E-01  3.4641E-04   2.9722E-01  0.000E+00  0.000E+00  0.000E+00  1.38178E+02  4.280E-01  2.325E+00  3.733E-04  0.000E+00  3.464E-04
   1    4    9     1     9    2.9722E-01  3.4628E-04   2.9688E-01  0.000E+00  0.000E+00  0.000E+00  1.37878E+02  4.278E-01  2.324E+00  3.732E-04  0.000E+00  3.463E-04
   1    4   10     1    10    2.9688E-01  3.4614E-04   2.9653E-01  0.000E+00  0.000E+00  0.000E+00  1.37578E+02  4.276E-01  2.324E+00  3.732E-04  0.000E+00  3.461E-04
   1    4   11     1    11    2.9653E-01  3.4600E-04   2.9619E-01  0.000E+00  0.000E+00  0.000E+00  1.37277E+02  4.274E-01  2.324E+00  3.731E-04  0.000E+00  3.460E-04
   1    4   12     1    12    2.9619E-01  3.4586E-04   2.9584E-01  0.000E+00  0.000E+00  0.000E+00  1.36977E+02  4.272E-01  2.324E+00  3.730E-04  0.000E+00  3.459E-04
   1    4   13     1    13    2.9584E-01  3.4573E-04   2.9549E-01  0.000E+00  0.000E+00  0.000E+00  1.36677E+02  4.270E-01  2.323E+00  3.730E-04  0.000E+00  3.457E-04
   1    4   14     1    14    2.9549E-01  3.4559E-04   2.9515E-01  0.000E+00  0.000E+00  0.000E+00  1.36377E+02  4.268E-01  2.323E+00  3.729E-04  0.000E+00  3.456E-04
   1    4   15     1    15    2.9515E-01  3.4545E-04   2.9480E-01  0.000E+00  0.000E+00  0.000E+00  1.36077E+02  4.266E-01  2.323E+00  3.728E-04  0.000E+00  3.455E-04
   1    4   16     1    16    2.9480E-01  3.4531E-04   2.9446E-01  0.000E+00  0.000E+00  0.000E+00  1.35776E+02  4.264E-01  2.323E+00  3.728E-04  0.000E+00  3.453E-04
   1    4   17     1    17    2.9446E-01  3.4518E-04   2.9411E-01  0.000E+00  0.000E+00  0.000E+00  1.35476E+02  4.262E-01  2.322E+00  3.727E-04  0.000E+00  3.452E-04
   1    4   18     1    18    2.9411E-01  3.4504E-04   2.9377E-01  0.000E+00  0.000E+00  0.000E+00  1.35176E+02  4.260E-01  2.322E+00  3.726E-04  0.000E+00  3.450E-04
   1    4   19     1    19    2.9377E-01  3.4490E-04   2.9342E-01  0.000E+00  0.000E+00  0.000E+00  1.34876E+02  4.258E-01  2.322E+00  3.726E-04  0.000E+00  3.449E-04
   1    4   20     1    20    2.9342E-01  3.4477E-04   2.9308E-01  0.000E+00  0.000E+00  0.000E+00  1.34576E+02  4.256E-01  2.322E+00  3.725E-04  0.000E+00  3.448E-04
   1    4   21     1    21    2.9308E-01  3.4463E-04   2.9273E-01  0.000E+00  0.000E+00  0.000E+00  1.34275E+02  4.254E-01  2.321E+00  3.724E-04  0.000E+00  3.446E-04
   1    4   22     1    22    2.9273E-01  3.4449E-04   2.9239E-01  0.000E+00  0.000E+00  0.000E+00  1.33975E+02  4.252E-01  2.321E+00  3.724E-04  0.000E+00  3.445E-04
   1    4   23     1    23    2.9239E-01  3.4435E-04   2.9205E-01  0.000E+00  0.000E+00  0.000E+00  1.33675E+02  4.250E-01  2.321E+00  3.723E-04  0.000E+00  3.444E-04
   1    4   24     1    24    2.9205E-01  3.4422E-04   2.9170E-01  0.000E+00  0.000E+00  0.000E+00  1.33375E+02  4.248E-01  2.321E+00  3.722E-04  0.000E+00  3.442E-04
   1    4   25     1    25    2.9170E-01  3.4408E-04   2.9136E-01  0.000E+00  0.000E+00  0.000E+00  1.33075E+02  4.246E-01  2.320E+00  3.722E-04  0.000E+00  3.441E-04
   1    4   26     1    26    2.9136E-01  3.4394E-04   2.9101E-01  0.000E+00  0.000E+00  0.000E+00  1.32774E+02  4.244E-01  2.320E+00  3.721E-04  0.000E+00  3.439E-04
   1    4   27     1    27    2.9101E-01  3.4381E-04   2.9067E-01  0.000E+00  0.000E+00  0.000E+00  1.32474E+02  4.242E-01  2.320E+00  3.720E-04  0.000E+00  3.438E-04
   1    4   28     1    28    2.9067E-01  3.4367E-04   2.9033E-01  0.000E+00  0.000E+00  0.000E+00  1.32174E+02  4.240E-01  2.320E+00  3.720E-04  0.000E+00  3.437E-04
   1    4   29     1    29    2.9033E-01  3.4353E-04   2.8998E-01  0.000E+00  0.000E+00  0.000E+00  1.31874E+02  4.237E-01  2.319E+00  3.719E-04  0.000E+00  3.435E-04
   1    4   30     1    30    2.8998E-01  3.4339E-04   2.8964E-01  0.000E+00  0.000E+00  0.000E+00  1.31574E+02  4.235E-01  2.319E+00  3.718E-04  0.000E+00  3.434E-04
   1    4   31     1    31    2.8964E-01  3.4326E-04   2.8930E-01  0.000E+00  0.000E+00  0.000E+00  1.31273E+02  4.233E-01  2.319E+00  3.718E-04  0.000E+00  3.433E-04
   1    4   32     1    32    2.8930E-01  3.4312E-04   2.8895E-01  0.000E+00  0.000E+00  0.000E+00  1.30973E+02  4.231E-01  2.319E+00  3.717E-04  0.000E+00  3.431E-04
   1    4   33     1    33    2.8895E-01  3.4298E-04   2.8861E-01  0.000E+00  0.000E+00  0.000E+00  1.30673E+02  4.229E-01  2.319E+00  3.716E-04  0.000E+00  3.430E-04
   1    4   34     1    34    2.8861E-01  3.4285E-04   2.8827E-01  0.000E+00  0.000E+00  0.000E+00  1.30373E+02  4.227E-01  2.318E+00  3.716E-04  0.000E+00  3.428E-04
   1    4   35     1    35    2.8827E-01  3.4271E-04   2.8792E-01  0.000E+00  0.000E+00  0.000E+00  1.30073E+02  4.225E-01  2.318E+00  3.715E-04  0.000E+00  3.427E-04
   1    4   36     1    36    2.8792E-01  3.4257E-04   2.8758E-01  0.000E+00  0.000E+00  0.000E+00  1.29772E+02  4.223E-01  2.318E+00  3.714E-04  0.000E+00  3.426E-04
   1    4   37     1    37    2.8758E-01  3.4244E-04   2.8724E-01  0.000E+00  0.000E+00  0.000E+00  1.29472E+02  4.221E-01  2.318E+00  3.714E-04  0.000E+00  3.424E-04
   1    4   38     1    38    2.8724E-01  3.4230E-04   2.8690E-01  0.000E+00  0.000E+00  0.000E+00  1.29172E+02  4.219E-01  2.317E+00  3.713E-04  0.000E+00  3.423E-04
   1    4   39     1    39    2.8690E-01  3.4216E-04   2.8655E-01  0.000E+00  0.000E+00  0.000E+00  1.28872E+02  4.217E-01  2.317E+00  3.712E-04  0.000E+00  3.422E-04
   1    4   40     1    40    2.8655E-01  3.4203E-04   2.8621E-01  0.000E+00  0.000E+00  0.000E+00  1.28572E+02  4.215E-01  2.317E+00  3.712E-04  0.000E+00  3.420E-04
   1    4   41     1    41    2.8621E-01  3.4189E-04   2.8587E-01  0.000E+00  0.000E+00  0.000E+00  1.28271E+02  4.213E-01  2.317E+00  3.711E-04  0.000E+00  3.419E-04
   1    4   42     1    42    2.8587E-01  3.4175E-04   2.8553E-01  0.000E+00  0.000E+00  0.000E+00  1.27971E+02  4.211E-01  2.316E+00  3.710E-04  0.000E+00  3.418E-04
   1    4   43     1    43    2.8553E-01  3.4162E-04   2.8519E-01  0.000E+00  0.000E+00  0.000E+00  1.27671E+02  4.209E-01  2.316E+00  3.710E-04  0.000E+00  3.416E-04
   1    4   44     1    44    2.8519E-01  3.4148E-04   2.8485E-01  0.000E+00  0.000E+00  0.000E+00  1.27371E+02  4.207E-01  2.316E+00  3.709E-04  0.000E+00  3.415E-04
   1    4   45     1    45    2.8485E-01  3.4134E-04   2.8450E-01  0.000E+00  0.000E+00  0.000E+00  1.27070E+02  4.205E-01  2.316E+00  3.708E-04  0.000E+00  3.413E-04
   1    4   46     1    46    2.8450E-01  3.4121E-04   2.8416E-01  0.000E+00  0.000E+00  0.000E+00  1.26770E+02  4.203E-01  2.315E+00  3.708E-04  0.000E+00  3.412E-04
   1    4   47     1    47    2.8416E-01  3.4107E-04   2.8382E-01  0.000E+00  0.000E+00  0.000E+00  1.26470E+02  4.201E-01  2.315E+00  3.707E-04  0.000E+00  3.411E-04
   1    4   48     1    48    2.8382E-01  3.4093E-04   2.8348E-01  0.000E+00  0.000E+00  0.000E+00  1.26170E+02  4.199E-01  2.315E+00  3.706E-04  0.000E+00  3.409E-04
   1    4   49     1    49    2.8348E-01  3.4080E-04   2.8314E-01  0.000E+00  0.000E+00  0.000E+00  1.25870E+02  4.197E-01  2.315E+00  3.706E-04  0.000E+00  3.408E-04
   1    4   50     1    50    2.8314E-01  3.4066E-04   2.8280E-01  0.000E+00  0.000E+00  0.000E+00  1.25569E+02  4.195E-01  2.314E+00  3.705E-04  0.000E+00  3.407E-04
   1    4   51     1    51    2.8280E-01  3.4052E-04   2.8246E-01  0.000E+00  0.000E+00  0.000E+00  1.25269E+02  4.193E-01  2.314E+00  3.704E-04  0.000E+00  3.405E-04
   1    4   52     1    52    2.8246E-01  3.4039E-04   2.8212E-01  0.000E+00  0.000E+00  0.000E+00  1.24969E+02  4.191E-01  2.314E+00  3.704E-04  0.000E+00  3.404E-04
   1    4   53     1    53    2.8212E-01  3.4025E-04   2.8178E-01  0.000E+00  0.000E+00  0.000E+00  1.24669E+02  4.189E-01  2.314E+00  3.703E-04  0.000E+00  3.402E-04
   1    4   54     1    54    2.8178E-01  3.4011E-04   2.8144E-01  0.000E+00  0.000E+00  0.000E+00  1.24369E+02  4.187E-01  2.313E+00  3.702E-04  0.000E+00  3.401E-04
   1    4   55     1    55    2.8144E-01  3.3998E-04   2.8110E-01  0.000E+00  0.000E+00  0.000E+00  1.24068E+02  4.185E-01  2.313E+00  3.702E-04  0.000E+00  3.400E-04
   1    4   56     1    56    2.8110E-01  3.3984E-04   2.8076E-01  0.000E+00  0.000E+00  0.000E+00  1.23768E+02  4.182E-01  2.313E+00  3.701E-04  0.000E+00  3.398E-04
   1    4   57     1    57    2.8076E-01  3.3970E-04   2.8042E-01  0.000E+00  0.000E+00  0.000E+00  1.23468E+02  4.180E-01  2.313E+00  3.700E-04  0.000E+00  3.397E-04
   1    4   58     1    58    2.8042E-01  3.3957E-04   2.8008E-01  0.000E+00  0.000E+00  0.000E+00  1.23168E+02  4.178E-01  2.312E+00  3.700E-04  0.000E+00  3.396E-04
   1    4   59     1    59    2.8008E-01  3.3943E-04   2.7974E-01  0.000E+00  0.000E+00  0.000E+00  1.22868E+02  4.176E-01  2.312E+00  3.699E-04  0.000E+00  3.394E-04
   1    4   60     1    60    2.7974E-01  3.3929E-04   2.7940E-01  0.000E+00  0.000E+00  0.000E+00  1.22567E+02  4.174E-01  2.312E+00  3.698E-04  0.000E+00  3.393E-04
   1    4   61     1    61    2.7940E-01  3.3916E-04   2.7906E-01  0.000E+00  0.000E+00  0.000E+00  1.22267E+02  4.172E-01  2.312E+00  3.698E-04  0.000E+00  3.392E-04
   1    4   62     1    62    2.7906E-01  3.3902E-04   2.7872E-01  0.000E+00  0.000E+00  0.000E+00  1.21967E+02  4.170E-01  2.311E+00  3.697E-04  0.000E+00  3.390E-04
   1    4   63     1    63    2.7872E-01  3.3889E-04   2.7838E-01  0.000E+00  0.000E+00  0.000E+00  1.21667E+02  4.168E-01  2.311E+00  3.696E-04  0.000E+00  3.389E-04
   1    4   64     1    64    2.7838E-01  3.3875E-04   2.7804E-01  0.000E+00  0.000E+00  0.000E+00  1.21367E+02  4.166E-01  2.311E+00  3.696E-04  0.000E+00  3.387E-04
   1    4   65     1    65    2.7804E-01  3.3861E-04   2.7771E-01  0.000E+00  0.000E+00  0.000E+00  1.21066E+02  4.164E-01  2.311E+00  3.695E-04  0.000E+00  3.386E-04
   1    4   66     1    66    2.7771E-01  3.3848E-04   2.7737E-01  0.000E+00  0.000E+00  0.000E+00  1.20766E+02  4.162E-01  2.310E+00  3.694E-04  0.000E+00  3.385E-04
   1    4   67     1    67    2.7737E-01  3.3834E-04   2.7703E-01  0.000E+00  0.000E+00  0.000E+00  1.20466E+02  4.160E-01  2.310E+00  3.694E-04  0.000E+00  3.383E-04
   1    4   68     1    68    2.7703E-01  3.3820E-04   2.7669E-01  0.000E+00  0.000E+00  0.000E+00  1.20166E+02  4.158E-01  2.310E+00  3.693E-04  0.000E+00  3.382E-04
   1    4   69     1    69    2.7669E-01  3.3807E-04   2.7635E-01  0.000E+00  0.000E+00  0.000E+00  1.19866E+02  4.156E-01  2.310E+00  3.692E-04  0.000E+00  3.381E-04
   1    4   70     1    70    2.7635E-01  3.3793E-04   2.7601E-01  0.000E+00  0.000E+00  0.000E+00  1.19565E+02  4.154E-01  2.309E+00  3.692E-04  0.000E+00  3.379E-04
   1    4   71     1    71    2.7601E-01  3.3779E-04   2.7568E-01  0.000E+00  0.000E+00  0.000E+00  1.19265E+02  4.152E-01  2.309E+00  3.691E-04  0.000E+00  3.378E-04
   1    4   72     1    72    2.7568E-01  3.3766E-04   2.7534E-01  0.000E+00  0.000E+00  0.000E+00  1.18965E+02  4.150E-01  2.309E+00  3.690E-04  0.000E+00  3.377E-04
   1    4   73     1    73    2.7534E-01  3.3752E-04   2.7500E-01  0.000E+00  0.000E+00  0.000E+00  1.18665E+02  4.148E-01  2.309E+00  3.690E-04  0.000E+00  3.375E-04
   1    4   74     1    74    2.7500E-01  3.3739E-04   2.7466E-01  0.000E+00  0.000E+00  0.000E+00  1.18365E+02  4.146E-01  2.309E+00  3.689E-04  0.000E+00  3.374E-04
   1    4   75     1    75    2.7466E-01  3.3725E-04   2.7433E-01  0.000E+00  0.000E+00  0.000E+00  1.18064E+02  4.144E-01  2.308E+00  3.688E-04  0.000E+00  3.373E-04
   1    4   76     1    76    2.7433E-01  3.3711E-04   2.7399E-01  0.000E+00  0.000E+00  0.000E+00  1.17764E+02  4.142E-01  2.308E+00  3.688E-04  0.000E+00  3.371E-04
   1    4   77     1    77    2.7399E-01  3.3698E-04   2.7365E-01  0.000E+00  0.000E+00  0.000E+00  1.17464E+02  4.140E-01  2.308E+00  3.687E-04  0.000E+00  3.370E-04
   1    4   78     1    78    2.7365E-01  3.3684E-04   2.7332E-01  0.000E+00  0.000E+00  0.000E+00  1.17164E+02  4.138E-01  2.308E+00  3.686E-04  0.000E+00  3.368E-04
   1    4   79     1    79    2.7332E-01  3.3671E-04   2.7298E-01  0.000E+00  0.000E+00  0.000E+00  1.16864E+02  4.136E-01  2.307E+00  3.686E-04  0.000E+00  3.367E-04
   1    4   80     1    80    2.7298E-01  3.3657E-04   2.7264E-01  0.000E+00  0.000E+00  0.000E+00  1.16563E+02  4.134E-01  2.307E+00  3.685E-04  0.000E+00  3.366E-04
   1    4   81     1    81    2.7264E-01  3.3643E-04   2.7231E-01  0.000E+00  0.000E+00  0.000E+00  1.16263E+02  4.132E-01  2.307E+00  3.684E-04  0.000E+00  3.364E-04
   1    4   82     1    82    2.7231E-01  3.3630E-04   2.7197E-01  0.000E+00  0.000E+00  0.000E+00  1.15963E+02  4.129E-01  2.307E+00  3.684E-04  0.000E+00  3.363E-04
   1    4   83     1    83    2.7197E-01  3.3616E-04   2.7163E-01  0.000E+00  0.000E+00  0.000E+00  1.15663E+02  4.127E-01  2.306E+00  3.683E-04  0.000E+00  3.362E-04
   1    4   84     1    84    2.7163E-01  3.3603E-04   2.7130E-01  0.000E+00  0.000E+00  0.000E+00  1.15363E+02  4.125E-01  2.306E+00  3.682E-04  0.000E+00  3.360E-04
   1    4   85     1    85    2.7130E-01  3.3589E-04   2.7096E-01  0.000E+00  0.000E+00  0.000E+00  1.15062E+02  4.123E-01  2.306E+00  3.682E-04  0.000E+00  3.359E-04
   1    4   86     1    86    2.7096E-01  3.3575E-04   2.7063E-01  0.000E+00  0.000E+00  0.000E+00  1.14762E+02  4.121E-01  2.306E+00  3.681E-04  0.000E+00  3.358E-04
   1    4   87     1    87    2.7063E-01  3.3562E-04   2.7029E-01  0.000E+00  0.000E+00  0.000E+00  1.14462E+02  4.119E-01  2.305E+00  3.680E-04  0.000E+00  3.356E-04
   1    4   88     1    88    2.7029E-01  3.3548E-04   2.6996E-01  0.000E+00  0.000E+00  0.000E+00  1.14162E+02  4.117E-01  2.305E+00  3.680E-04  0.000E+00  3.355E-04
   1    4   89     1    89    2.6996E-01  3.3535E-04   2.6962E-01  0.000E+00  0.000E+00  0.000E+00  1.13862E+02  4.115E-01  2.305E+00  3.679E-04  0.000E+00  3.353E-04
   1    4   90     1    90    2.6962E-01  3.3521E-04   2.6928E-01  0.000E+00  0.000E+00  0.000E+00  1.13561E+02  4.113E-01  2.305E+00  3.678E-04  0.000E+00  3.352E-04
   1    4   91     1    91    2.6928E-01  3.3507E-04   2.6895E-01  0.000E+00  0.000E+00  0.000E+00  1.13261E+02  4.111E-01  2.304E+00  3.678E-04  0.000E+00  3.351E-04
   1    4   92     1    92    2.6895E-01  3.3494E-04   2.6861E-01  0.000E+00  0.000E+00  0.000E+00  1.12961E+02  4.109E-01  2.304E+00  3.677E-04  0.000E+00  3.349E-04
   1    4   93     1    93    2.6861E-01  3.3480E-04   2.6828E-01  0.000E+00  0.000E+00  0.000E+00  1.12661E+02  4.107E-01  2.304E+00  3.676E-04  0.000E+00  3.348E-04
   1    4   94     1    94    2.6828E-01  3.3467E-04   2.6795E-01  0.000E+00  0.000E+00  0.000E+00  1.12360E+02  4.105E-01  2.304E+00  3.676E-04  0.000E+00  3.347E-04
   1    4   95     1    95    2.6795E-01  3.3453E-04   2.6761E-01  0.000E+00  0.000E+00  0.000E+00  1.12060E+02  4.103E-01  2.303E+00  3.675E-04  0.000E+00  3.345E-04
   1    4   96     1    96    2.6761E-01  3.3440E-04   2.6728E-01  0.000E+00  0.000E+00  0.000E+00  1.11760E+02  4.101E-01  2.303E+00  3.674E-04  0.000E+00  3.344E-04
   1    4   97     1    97    2.6728E-01  3.3426E-04   2.6694E-01  0.000E+00  0.000E+00  0.000E+00  1.11460E+02  4.099E-01  2.303E+00  3.674E-04  0.000E+00  3.343E-04
   1    4   98     1    98    2.6694E-01  3.3412E-04   2.6661E-01  0.000E+00  0.000E+00  0.000E+00  1.11160E+02  4.097E-01  2.303E+00  3.673E-04  0.000E+00  3.341E-04
   1    4   99     1    99    2.6661E-01  3.3399E-04   2.6627E-01  0.000E+00  0.000E+00  0.000E+00  1.10859E+02  4.095E-01  2.302E+00  3.672E-04  0.000E+00  3.340E-04
   1    4  100     1   100    2.6627E-01  3.3385E-04   2.6594E-01  0.000E+00  0.000E+00  0.000E+00  1.10559E+02  4.093E-01  2.302E+00  3.672E-04  0.000E+00  3.339E-04



1
  VOLUMETRIC BUDGET FOR UNSATURATED ZONE BENEATH STREAMS AT END OF TIME STEP    30 STRESS PERIOD   1
  ------------------------------------------------------------------------------------------------

    CUMULATIVE VOLUMES             L**3    RATES FOR THIS TIME STEP         L**3/T
    ------------------                     ------------------------


          STREAM LOSS =        88283.1721            STREAM LOSS =        3.4060E-02
    CHANGE IN STORAGE =        88283.1721      CHANGE IN STORAGE =        3.4060E-02
       RECHARGE TO GW =            0.0000         RECHARGE TO GW =            0.0000

             TOTAL IN =        88283.1721               TOTAL IN =        3.4060E-02

            TOTAL OUT =        88283.1721              TOTAL OUT =        3.4060E-02

             IN - OUT =       -8.7311E-11               IN - OUT =            0.0000

  PERCENT DISCREPANCY =           -0.00      PERCENT DISCREPANCY =             0.00



1
              HEAD IN LAYER   1 AT END OF TIME STEP  30 IN STRESS PERIOD    1
  ---------------------------------------------------------------------------

          1      2      3      4      5      6      7      8      9     10
         11     12     13     14     15     16     17     18     19     20
         21     22     23     24     25     26     27     28     29     30
         31     32     33     34     35     36     37     38     39     40
         41     42     43     44     45     46     47     48     49     50
         51     52     53     54     55     56     57     58     59     60
         61     62     63     64     65     66     67     68     69     70
         71     72     73     74     75     76     77     78     79     80
         81     82     83     84     85     86     87     88     89     90
         91     92     93     94     95     96     97     98     99    100
 .........................................................................
   1   104.0  104.0  104.0  104.0  104.0  104.0  104.0  104.0  104.0  104.0
       104.0  104.0  104.0  104.0  104.0  104.0  104.0  104.0  104.0  104.0
       104.0  104.0  104.0  104.0  104.0  104.0  104.0  104.0  104.0  104.0
       104.0  104.0  104.0  104.0  104.0  104.0  104.0  104.0  104.0  104.0
       104.0  104.0  104.0  104.0  104.0  104.0  104.0  104.0  104.0  104.0
       104.0  104.0  104.0  104.0  104.0  104.0  104.0  104.0  104.0  104.0
       104.0  104.0  104.0  104.0  104.0  104.0  104.0  104.0  104.0  104.0
       104.0  104.0  103.9  103.9  103.9  103.8  103.8  103.7  103.6  103.5
       103.3  103.2  102.9  102.6  102.3  101.8  101.3  100.6   99.8   98.8
        97.6   96.2   94.6   92.7   90.5   88.0   85.2   82.1   78.7   75.0
   2   104.0  104.0  104.0  104.0  104.0  104.0  104.0  104.0  104.0  104.0
       104.0  104.0  104.0  104.0  104.0  104.0  104.0  104.0  104.0  104.0
       104.0  104.0  104.0  104.0  104.0  104.0  104.0  104.0  104.0  104.0
       104.0  104.0  104.0  104.0  104.0  104.0  104.0  104.0  104.0  104.0
       104.0  104.0  104.0  104.0  104.0  104.0  104.0  104.0  104.0  104.0
       104.0  104.0  104.0  104.0  104.0  104.0  104.0  104.0  104.0  104.0
       104.0  104.0  104.0  104.0  104.0  104.0  104.0  104.0  104.0  104.0
       104.0  104.0  103.9  103.9  103.9  103.8  103.8  103.7  103.6  103.5
       103.3  103.2  102.9  102.6  102.3  101.8  101.3  100.6   99.8   98.8
        97.6   96.2   94.6   92.7   90.5   88.0   85.2   82.1   78.7   75.0
   3   104.0  104.0  104.0  104.0  104.0  104.0  104.0  104.0  104.0  104.0
       104.0  104.0  104.0  104.0  104.0  104.0  104.0  104.0  104.0  104.0
       104.0  104.0  104.0  104.0  104.0  104.0  104.0  104.0  104.0  104.0
       104.0  104.0  104.0  104.0  104.0  104.0  104.0  104.0  104.0  104.0
       104.0  104.0  104.0  104.0  104.0  104.0  104.0  104.0  104.0  104.0
       104.0  104.0  104.0  104.0  104.0  104.0  104.0  104.0  104.0  104.0
       104.0  104.0  104.0  104.0  104.0  104.0  104.0  104.0  104.0  104.0
       104.0  104.0  103.9  103.9  103.9  103.8  103.8  103.7  103.6  103.5
       103.3  103.2  102.9  102.6  102.3  101.8  101.3  100.6   99.8   98.8
        97.6   96.2   94.6   92.7   90.5   88.0   85.2   82.1   78.7   75.0
   4   104.0  104.0  104.0  104.0  104.0  104.0  104.0  104.0  104.0  104.0
       104.0  104.0  104.0  104.0  104.0  104.0  104.0  104.0  104.0  104.0
       104.0  104.0  104.0  104.0  104.0  104.0  104.0  104.0  104.0  104.0
       104.0  104.0  104.0  104.0  104.0  104.0  104.0  104.0  104.0  104.0
       104.0  104.0  104.0  104.0  104.0  104.0  104.0  104.0  104.0  104.0
       104.0  104.0  104.0  104.0  104.0  104.0  104.0  104.0  104.0  104.0
       104.0  104.0  104.0  104.0  104.0  104.0  104.0  104.0  104.0  104.0
       104.0  104.0  103.9  103.9  103.9  103.8  103.8  103.7  103.6  103.5
       103.3  103.2  102.9  102.6  102.3  101.8  101.3  100.6   99.8   98.8
        97.6   96.2   94.6   92.7   90.5   88.0   85.2   82.1   78.7   75.0
   5   104.0  104.0  104.0  104.0  104.0  104.0  104.0  104.0  104.0  104.0
       104.0  104.0  104.0  104.0  104.0  104.0  104.0  104.0  104.0  104.0
       104.0  104.0  104.0  104.0  104.0  104.0  104.0  104.0  104.0  104.0
       104.0  104.0  104.0  104.0  104.0  104.0  104.0  104.0  104.0  104.0
       104.0  104.0  104.0  104.0  104.0  104.0  104.0  104.0  104.0  104.0
       104.0  104.0  104.0  104.0  104.0  104.0  104.0  104.0  104.0  104.0
       104.0  104.0  104.0  104.0  104.0  104.0  104.0  104.0  104.0  104.0
       104.0  104.0  103.9  103.9  103.9  103.8  103.8  103.7  103.6  103.5
       103.3  103.2  102.9  102.6  102.3  101.8  101.3  100.6   99.8   98.8
        97.6   96.2   94.6   92.7   90.5   88.0   85.2   82.1   78.7   75.0
   6   104.0  104.0  104.0  104.0  104.0  104.0  104.0  104.0  104.0  104.0
       104.0  104.0  104.0  104.0  104.0  104.0  104.0  104.0  104.0  104.0
       104.0  104.0  104.0  104.0  104.0  104.0  104.0  104.0  104.0  104.0
       104.0  104.0  104.0  104.0  104.0  104.0  104.0  104.0  104.0  104.0
       104.0  104.0  104.0  104.0  104.0  104.0  104.0  104.0  104.0  104.0
       104.0  104.0  104.0  104.0  104.0  104.0  104.0  104.0  104.0  104.0
       104.0  104.0  104.0  104.0  104.0  104.0  104.0  104.0  104.0  104.0
       104.0  104.0  103.9  103.9  103.9  103.8  103.8  103.7  103.6  103.5
       103.3  103.2  102.9  102.6  102.3  101.8  101.3  100.6   99.8   98.8
        97.6   96.2   94.6   92.7   90.5   88.0   85.2   82.1   78.7   75.0
   7   104.0  104.0  104.0  104.0  104.0  104.0  104.0  104.0  104.0  104.0
       104.0  104.0  104.0  104.0  104.0  104.0  104.0  104.0  104.0  104.0
       104.0  104.0  104.0  104.0  104.0  104.0  104.0  104.0  104.0  104.0
       104.0  104.0  104.0  104.0  104.0  104.0  104.0  104.0  104.0  104.0
       104.0  104.0  104.0  104.0  104.0  104.0  104.0  104.0  104.0  104.0
       104.0  104.0  104.0  104.0  104.0  104.0  104.0  104.0  104.0  104.0
       104.0  104.0  104.0  104.0  104.0  104.0  104.0  104.0  104.0  104.0
       104.0  104.0  103.9  103.9  103.9  103.8  103.8  103.7  103.6  103.5
       103.3  103.2  102.9  102.6  102.3  101.8  101.3  100.6   99.8   98.8
        97.6   96.2   94.6   92.7   90.5   88.0   85.2   82.1   78.7   75.0



  -------------------------------------------------------------------------------------
  VOLUMETRIC BUDGET FOR ENTIRE MODEL AT END OF TIME STEP   30 IN STRESS PERIOD      1
  -------------------------------------------------------------------------------------

     CUMULATIVE VOLUMES      L**3       RATES FOR THIS TIME STEP      L**3/T
     ------------------                 ------------------------

           IN:                                      IN:
           ---                                      ---
             STORAGE =     3570817.5545               STORAGE =           0.6722
       CONSTANT HEAD =           0.0000         CONSTANT HEAD =           0.0000
     HEAD DEP BOUNDS =           0.0000       HEAD DEP BOUNDS =           0.0000
      STREAM LEAKAGE =           0.0000        STREAM LEAKAGE =           0.0000

            TOTAL IN =     3570817.5545              TOTAL IN =           0.6722

          OUT:                                     OUT:
          ----                                     ----
             STORAGE =           0.0000               STORAGE =           0.0000
       CONSTANT HEAD =           0.0000         CONSTANT HEAD =           0.0000
     HEAD DEP BOUNDS =     3570817.7843       HEAD DEP BOUNDS =           0.6722
      STREAM LEAKAGE =           0.0000        STREAM LEAKAGE =           0.0000

           TOTAL OUT =     3570817.7843             TOTAL OUT =           0.6722

            IN - OUT =          -0.2297              IN - OUT =      -6.8847E-08

 PERCENT DISCREPANCY =          -0.00     PERCENT DISCREPANCY =          -0.00


          TIME SUMMARY AT END OF TIME STEP    30 IN STRESS PERIOD      1
                    SECONDS     MINUTES      HOURS       DAYS        YEARS
                    -----------------------------------------------------------
   TIME STEP LENGTH 2.49961E+05  4166.0      69.434      2.8931     7.92080E-03
 STRESS PERIOD TIME 2.59200E+06  43200.      720.00      30.000     8.21355E-02
         TOTAL TIME 2.59200E+06  43200.      720.00      30.000     8.21355E-02
 
1
                            STRESS PERIOD NO.      2, LENGTH =   2592000.    
                            -----------------------------------------------

                              NUMBER OF TIME STEPS =    30

                               MULTIPLIER FOR DELT =     1.100

                            INITIAL TIME STEP SIZE =   15757.41    

 REUSING NON-PARAMETER GHB CELLS FROM LAST STRESS PERIOD

      7 GHB CELLS



 CLASSIFICATION & COUNT OF STREAM SEGMENTS BASED ON SOURCE OF INFLOW:

                HEADWATER     DIVERSION     RECEIVES TRIBUTARY FLOW
                ---------     ---------     -----------------------
                     1              0               0



                    INPUT DATA FOR EACH STREAM SEGMENT
 ---------------------------------------------------------------------------------------------

 SEGMENT    SEG.     INFLOW   OVERLAND   STREAM    STREAM   ICALC  OUTFLOW  DIVERSION PRIORITY
    NO.    LENGTH     RATE     RUNOFF      ET       PPT.    METH.  TO SEG.  FROM SEG.    NO.

      1  2.000E+04 2.533E+00 0.000E+00 0.000E+00 0.000E+00    2        0        0        0


         STREAMBED PROPERTIES AND STREAM DIMENSIONS

 SEGMENT     BED HYD. COND.      BED THICKNESS     ELEV.-TOP OF BED     WIDTH OF STREAM     DEPTH OF STREAM    STREAM ROUGHNESS
    No.     UPPER     LOWER     UPPER     LOWER     UPPER     LOWER     UPPER     LOWER     UPPER     LOWER   CHANNEL      BANK

     1  3.500E-07 3.500E-07                                                                                 3.000E-02 4.000E-02

  EIGHT POINT CROSS-SECTION DATA FOR SEGMENTS WITH ICALC = 2
    X VALUES X VALUES START FROM LEFT SIDE LOOKING DOWNSTREAM

     SEGMENT NO.        X1        X2        X3        X4        X5        X6        X7        X8
            1      0.000E+00 2.000E+00 4.000E+00 6.000E+00 8.000E+00 1.000E+01 1.200E+01 1.400E+01

    Z VALUES ARE RELATIVE TO STREAMBED ELEVATION

     SEGMENT NO.          Z1        Z2        Z3        Z4        Z5        Z6        Z7        Z8
            1      6.000E+00 4.500E+00 3.500E+00 0.000E+00 3.000E-01 3.500E+00 4.500E+00 6.000E+00

READING PCG SOLVER STRESS PERIOD INFORMATION


########################################################################################################################
PCG INPUT FILE STRESS PERIOD CONVERGENCE INFORMATION FAILED READ FOR STRESS PERIOD     2
 REUSING PREVIOUSLY DEFINED CRITERIA FOR REMAINDER OF SIMULATION.
########################################################################################################################
 
 SOLVING FOR HEAD 

 NO OUTPUT CONTROL FOR STRESS PERIOD      2   TIME STEP     1
 
 SOLVING FOR HEAD 

 NO OUTPUT CONTROL FOR STRESS PERIOD      2   TIME STEP     2
 
 SOLVING FOR HEAD 

 NO OUTPUT CONTROL FOR STRESS PERIOD      2   TIME STEP     3
 
 SOLVING FOR HEAD 

 NO OUTPUT CONTROL FOR STRESS PERIOD      2   TIME STEP     4
 
 SOLVING FOR HEAD 

 NO OUTPUT CONTROL FOR STRESS PERIOD      2   TIME STEP     5
 
 SOLVING FOR HEAD 

 NO OUTPUT CONTROL FOR STRESS PERIOD      2   TIME STEP     6
 
 SOLVING FOR HEAD 

 NO OUTPUT CONTROL FOR STRESS PERIOD      2   TIME STEP     7
 
 SOLVING FOR HEAD 

 NO OUTPUT CONTROL FOR STRESS PERIOD      2   TIME STEP     8
 
 SOLVING FOR HEAD 

 NO OUTPUT CONTROL FOR STRESS PERIOD      2   TIME STEP     9
 
 SOLVING FOR HEAD 

 NO OUTPUT CONTROL FOR STRESS PERIOD      2   TIME STEP    10
 
 SOLVING FOR HEAD 

 NO OUTPUT CONTROL FOR STRESS PERIOD      2   TIME STEP    11
 
 SOLVING FOR HEAD 

 NO OUTPUT CONTROL FOR STRESS PERIOD      2   TIME STEP    12
 
 SOLVING FOR HEAD 

 NO OUTPUT CONTROL FOR STRESS PERIOD      2   TIME STEP    13
 
 SOLVING FOR HEAD 

 NO OUTPUT CONTROL FOR STRESS PERIOD      2   TIME STEP    14
 
 SOLVING FOR HEAD 

 NO OUTPUT CONTROL FOR STRESS PERIOD      2   TIME STEP    15
 
 SOLVING FOR HEAD 

 NO OUTPUT CONTROL FOR STRESS PERIOD      2   TIME STEP    16
 
 SOLVING FOR HEAD 

 NO OUTPUT CONTROL FOR STRESS PERIOD      2   TIME STEP    17
 
 SOLVING FOR HEAD 

 NO OUTPUT CONTROL FOR STRESS PERIOD      2   TIME STEP    18
 
 SOLVING FOR HEAD 

 NO OUTPUT CONTROL FOR STRESS PERIOD      2   TIME STEP    19
 
 SOLVING FOR HEAD 

 NO OUTPUT CONTROL FOR STRESS PERIOD      2   TIME STEP    20
 
 SOLVING FOR HEAD 

 NO OUTPUT CONTROL FOR STRESS PERIOD      2   TIME STEP    21
 
 SOLVING FOR HEAD 

 NO OUTPUT CONTROL FOR STRESS PERIOD      2   TIME STEP    22
 
 SOLVING FOR HEAD 

 NO OUTPUT CONTROL FOR STRESS PERIOD      2   TIME STEP    23
 
 SOLVING FOR HEAD 

 NO OUTPUT CONTROL FOR STRESS PERIOD      2   TIME STEP    24
 
 SOLVING FOR HEAD 

 NO OUTPUT CONTROL FOR STRESS PERIOD      2   TIME STEP    25
 
 SOLVING FOR HEAD 

 NO OUTPUT CONTROL FOR STRESS PERIOD      2   TIME STEP    26
 
 SOLVING FOR HEAD 

 NO OUTPUT CONTROL FOR STRESS PERIOD      2   TIME STEP    27
 
 SOLVING FOR HEAD 

 NO OUTPUT CONTROL FOR STRESS PERIOD      2   TIME STEP    28
 
 SOLVING FOR HEAD 

 NO OUTPUT CONTROL FOR STRESS PERIOD      2   TIME STEP    29
 
 SOLVING FOR HEAD 

 NO OUTPUT CONTROL FOR STRESS PERIOD      2   TIME STEP    30



 STREAM LISTING     PERIOD      2   STEP       30

 LAYER ROW COL. STREAM  RCH.   FLOW INTO    STREAM     FLOW OUT OF   OVRLND.    DIRECT     STREAM      STREAM      STREAM     STREAM  STREAMBED   FLOW TO   CHNG. UNSAT. 
                SEG.NO.  NO.   STRM. RCH.    LOSS       STRM. RCH.   RUNOFF     PRECIP       ET         HEAD        DEPTH      WIDTH  CONDCTNC.   WAT. TAB.

   1    4    1     1     1    2.5330E+00  1.0459E-03   2.5320E+00  0.000E+00  0.000E+00  0.000E+00  1.41036E+02  1.186E+00  3.231E+00  6.205E-04  0.000E+00  1.046E-03
   1    4    2     1     2    2.5320E+00  1.0456E-03   2.5309E+00  0.000E+00  0.000E+00  0.000E+00  1.40735E+02  1.185E+00  3.231E+00  6.204E-04  0.000E+00  1.046E-03
   1    4    3     1     3    2.5309E+00  1.0453E-03   2.5299E+00  0.000E+00  0.000E+00  0.000E+00  1.40435E+02  1.185E+00  3.230E+00  6.203E-04  0.000E+00  1.045E-03
   1    4    4     1     4    2.5299E+00  1.0450E-03   2.5288E+00  0.000E+00  0.000E+00  0.000E+00  1.40135E+02  1.185E+00  3.230E+00  6.203E-04  0.000E+00  1.045E-03
   1    4    5     1     5    2.5288E+00  1.0447E-03   2.5278E+00  0.000E+00  0.000E+00  0.000E+00  1.39835E+02  1.185E+00  3.230E+00  6.202E-04  0.000E+00  1.045E-03
   1    4    6     1     6    2.5278E+00  1.0444E-03   2.5267E+00  0.000E+00  0.000E+00  0.000E+00  1.39534E+02  1.184E+00  3.229E+00  6.201E-04  0.000E+00  1.044E-03
   1    4    7     1     7    2.5267E+00  1.0441E-03   2.5257E+00  0.000E+00  0.000E+00  0.000E+00  1.39234E+02  1.184E+00  3.229E+00  6.200E-04  0.000E+00  1.044E-03
   1    4    8     1     8    2.5257E+00  1.0438E-03   2.5246E+00  0.000E+00  0.000E+00  0.000E+00  1.38934E+02  1.184E+00  3.229E+00  6.199E-04  0.000E+00  1.044E-03
   1    4    9     1     9    2.5246E+00  1.0435E-03   2.5236E+00  0.000E+00  0.000E+00  0.000E+00  1.38634E+02  1.184E+00  3.229E+00  6.198E-04  1.634E-27  1.044E-03
   1    4   10     1    10    2.5236E+00  1.0432E-03   2.5226E+00  0.000E+00  0.000E+00  0.000E+00  1.38333E+02  1.183E+00  3.228E+00  6.198E-04  3.002E-27  1.043E-03
   1    4   11     1    11    2.5226E+00  1.0429E-03   2.5215E+00  0.000E+00  0.000E+00  0.000E+00  1.38033E+02  1.183E+00  3.228E+00  6.197E-04  5.515E-27  1.043E-03
   1    4   12     1    12    2.5215E+00  1.0426E-03   2.5205E+00  0.000E+00  0.000E+00  0.000E+00  1.37733E+02  1.183E+00  3.228E+00  6.196E-04  1.013E-26  1.043E-03
   1    4   13     1    13    2.5205E+00  1.0423E-03   2.5194E+00  0.000E+00  0.000E+00  0.000E+00  1.37433E+02  1.183E+00  3.227E+00  6.195E-04  1.861E-26  1.042E-03
   1    4   14     1    14    2.5194E+00  1.0421E-03   2.5184E+00  0.000E+00  0.000E+00  0.000E+00  1.37132E+02  1.182E+00  3.227E+00  6.194E-04  3.417E-26  1.042E-03
   1    4   15     1    15    2.5184E+00  1.0418E-03   2.5173E+00  0.000E+00  0.000E+00  0.000E+00  1.36832E+02  1.182E+00  3.227E+00  6.193E-04  6.275E-26  1.042E-03
   1    4   16     1    16    2.5173E+00  1.0415E-03   2.5163E+00  0.000E+00  0.000E+00  0.000E+00  1.36532E+02  1.182E+00  3.226E+00  6.193E-04  1.152E-25  1.041E-03
   1    4   17     1    17    2.5163E+00  1.0412E-03   2.5153E+00  0.000E+00  0.000E+00  0.000E+00  1.36232E+02  1.182E+00  3.226E+00  6.192E-04  2.116E-25  1.041E-03
   1    4   18     1    18    2.5153E+00  1.0409E-03   2.5142E+00  0.000E+00  0.000E+00  0.000E+00  1.35931E+02  1.181E+00  3.226E+00  6.191E-04  3.884E-25  1.041E-03
   1    4   19     1    19    2.5142E+00  1.0406E-03   2.5132E+00  0.000E+00  0.000E+00  0.000E+00  1.35631E+02  1.181E+00  3.226E+00  6.190E-04  7.129E-25  1.041E-03
   1    4   20     1    20    2.5132E+00  1.0403E-03   2.5121E+00  0.000E+00  0.000E+00  0.000E+00  1.35331E+02  1.181E+00  3.225E+00  6.189E-04  1.308E-24  1.040E-03
   1    4   21     1    21    2.5121E+00  1.0400E-03   2.5111E+00  0.000E+00  0.000E+00  0.000E+00  1.35031E+02  1.181E+00  3.225E+00  6.189E-04  2.401E-24  1.040E-03
   1    4   22     1    22    2.5111E+00  1.0397E-03   2.5101E+00  0.000E+00  0.000E+00  0.000E+00  1.34730E+02  1.180E+00  3.225E+00  6.188E-04  4.406E-24  1.040E-03
   1    4   23     1    23    2.5101E+00  1.0394E-03   2.5090E+00  0.000E+00  0.000E+00  0.000E+00  1.34430E+02  1.180E+00  3.224E+00  6.187E-04  8.085E-24  1.039E-03
   1    4   24     1    24    2.5090E+00  1.0391E-03   2.5080E+00  0.000E+00  0.000E+00  0.000E+00  1.34130E+02  1.180E+00  3.224E+00  6.186E-04  1.484E-23  1.039E-03
   1    4   25     1    25    2.5080E+00  1.0388E-03   2.5069E+00  0.000E+00  0.000E+00  0.000E+00  1.33829E+02  1.179E+00  3.224E+00  6.185E-04  2.723E-23  1.039E-03
   1    4   26     1    26    2.5069E+00  1.0385E-03   2.5059E+00  0.000E+00  0.000E+00  0.000E+00  1.33529E+02  1.179E+00  3.223E+00  6.184E-04  5.007E-23  1.039E-03
   1    4   27     1    27    2.5059E+00  1.0382E-03   2.5049E+00  0.000E+00  0.000E+00  0.000E+00  1.33229E+02  1.179E+00  3.223E+00  6.184E-04  9.270E-23  1.038E-03
   1    4   28     1    28    2.5049E+00  1.0379E-03   2.5038E+00  0.000E+00  0.000E+00  0.000E+00  1.32929E+02  1.179E+00  3.223E+00  6.183E-04  1.076E-05  1.027E-03
   1    4   29     1    29    2.5038E+00  1.0376E-03   2.5028E+00  0.000E+00  0.000E+00  0.000E+00  1.32628E+02  1.178E+00  3.222E+00  6.182E-04  1.658E-04  8.718E-04
   1    4   30     1    30    2.5028E+00  1.0373E-03   2.5018E+00  0.000E+00  0.000E+00  0.000E+00  1.32328E+02  1.178E+00  3.222E+00  6.181E-04  3.210E-04  7.163E-04
   1    4   31     1    31    2.5018E+00  1.0370E-03   2.5007E+00  0.000E+00  0.000E+00  0.000E+00  1.32028E+02  1.178E+00  3.222E+00  6.180E-04  4.763E-04  5.607E-04
   1    4   32     1    32    2.5007E+00  1.0367E-03   2.4997E+00  0.000E+00  0.000E+00  0.000E+00  1.31728E+02  1.178E+00  3.222E+00  6.179E-04  6.316E-04  4.051E-04
   1    4   33     1    33    2.4997E+00  1.0365E-03   2.4986E+00  0.000E+00  0.000E+00  0.000E+00  1.31427E+02  1.177E+00  3.221E+00  6.179E-04  7.870E-04  2.495E-04
   1    4   34     1    34    2.4986E+00  1.0362E-03   2.4976E+00  0.000E+00  0.000E+00  0.000E+00  1.31127E+02  1.177E+00  3.221E+00  6.178E-04  9.423E-04  9.390E-05
   1    4   35     1    35    2.4976E+00  1.0359E-03   2.4966E+00  0.000E+00  0.000E+00  0.000E+00  1.30827E+02  1.177E+00  3.221E+00  6.177E-04  1.043E-03 -6.977E-06
   1    4   36     1    36    2.4966E+00  1.0356E-03   2.4955E+00  0.000E+00  0.000E+00  0.000E+00  1.30527E+02  1.177E+00  3.220E+00  6.176E-04  1.043E-03 -6.944E-06
   1    4   37     1    37    2.4955E+00  1.0353E-03   2.4945E+00  0.000E+00  0.000E+00  0.000E+00  1.30226E+02  1.176E+00  3.220E+00  6.175E-04  1.042E-03 -6.756E-06
   1    4   38     1    38    2.4945E+00  1.0350E-03   2.4935E+00  0.000E+00  0.000E+00  0.000E+00  1.29926E+02  1.176E+00  3.220E+00  6.175E-04  1.041E-03 -6.509E-06
   1    4   39     1    39    2.4935E+00  1.0347E-03   2.4924E+00  0.000E+00  0.000E+00  0.000E+00  1.29626E+02  1.176E+00  3.219E+00  6.174E-04  1.041E-03 -6.232E-06
   1    4   40     1    40    2.4924E+00  1.0344E-03   2.4914E+00  0.000E+00  0.000E+00  0.000E+00  1.29326E+02  1.176E+00  3.219E+00  6.173E-04  1.040E-03 -5.944E-06
   1    4   41     1    41    2.4914E+00  1.0341E-03   2.4904E+00  0.000E+00  0.000E+00  0.000E+00  1.29025E+02  1.175E+00  3.219E+00  6.172E-04  1.040E-03 -5.739E-06
   1    4   42     1    42    2.4904E+00  1.0338E-03   2.4893E+00  0.000E+00  0.000E+00  0.000E+00  1.28725E+02  1.175E+00  3.219E+00  6.171E-04  1.040E-03 -5.737E-06
   1    4   43     1    43    2.4893E+00  1.0335E-03   2.4883E+00  0.000E+00  0.000E+00  0.000E+00  1.28425E+02  1.175E+00  3.218E+00  6.170E-04  1.039E-03 -5.740E-06
   1    4   44     1    44    2.4883E+00  1.0332E-03   2.4873E+00  0.000E+00  0.000E+00  0.000E+00  1.28125E+02  1.175E+00  3.218E+00  6.170E-04  1.039E-03 -5.723E-06
   1    4   45     1    45    2.4873E+00  1.0329E-03   2.4862E+00  0.000E+00  0.000E+00  0.000E+00  1.27824E+02  1.174E+00  3.218E+00  6.169E-04  1.039E-03 -5.690E-06
   1    4   46     1    46    2.4862E+00  1.0326E-03   2.4852E+00  0.000E+00  0.000E+00  0.000E+00  1.27524E+02  1.174E+00  3.217E+00  6.168E-04  1.038E-03 -5.654E-06
   1    4   47     1    47    2.4852E+00  1.0323E-03   2.4842E+00  0.000E+00  0.000E+00  0.000E+00  1.27224E+02  1.174E+00  3.217E+00  6.167E-04  1.038E-03 -5.634E-06
   1    4   48     1    48    2.4842E+00  1.0320E-03   2.4831E+00  0.000E+00  0.000E+00  0.000E+00  1.26924E+02  1.174E+00  3.217E+00  6.166E-04  1.038E-03 -5.621E-06
   1    4   49     1    49    2.4831E+00  1.0318E-03   2.4821E+00  0.000E+00  0.000E+00  0.000E+00  1.26623E+02  1.173E+00  3.216E+00  6.165E-04  1.037E-03 -5.603E-06
   1    4   50     1    50    2.4821E+00  1.0315E-03   2.4811E+00  0.000E+00  0.000E+00  0.000E+00  1.26323E+02  1.173E+00  3.216E+00  6.165E-04  1.037E-03 -5.573E-06
   1    4   51     1    51    2.4811E+00  1.0312E-03   2.4800E+00  0.000E+00  0.000E+00  0.000E+00  1.26023E+02  1.173E+00  3.216E+00  6.164E-04  1.037E-03 -5.533E-06
   1    4   52     1    52    2.4800E+00  1.0309E-03   2.4790E+00  0.000E+00  0.000E+00  0.000E+00  1.25723E+02  1.173E+00  3.216E+00  6.163E-04  1.036E-03 -5.484E-06
   1    4   53     1    53    2.4790E+00  1.0306E-03   2.4780E+00  0.000E+00  0.000E+00  0.000E+00  1.25422E+02  1.172E+00  3.215E+00  6.162E-04  1.036E-03 -5.423E-06
   1    4   54     1    54    2.4780E+00  1.0303E-03   2.4769E+00  0.000E+00  0.000E+00  0.000E+00  1.25122E+02  1.172E+00  3.215E+00  6.161E-04  1.036E-03 -5.343E-06
   1    4   55     1    55    2.4769E+00  1.0300E-03   2.4759E+00  0.000E+00  0.000E+00  0.000E+00  1.24822E+02  1.172E+00  3.215E+00  6.161E-04  1.035E-03 -5.240E-06
   1    4   56     1    56    2.4759E+00  1.0297E-03   2.4749E+00  0.000E+00  0.000E+00  0.000E+00  1.24522E+02  1.172E+00  3.214E+00  6.160E-04  1.035E-03 -5.106E-06
   1    4   57     1    57    2.4749E+00  1.0294E-03   2.4739E+00  0.000E+00  0.000E+00  0.000E+00  1.24221E+02  1.171E+00  3.214E+00  6.159E-04  1.034E-03 -4.935E-06
   1    4   58     1    58    2.4739E+00  1.0291E-03   2.4728E+00  0.000E+00  0.000E+00  0.000E+00  1.23921E+02  1.171E+00  3.214E+00  6.158E-04  1.034E-03 -4.717E-06
   1    4   59     1    59    2.4728E+00  1.0288E-03   2.4718E+00  0.000E+00  0.000E+00  0.000E+00  1.23621E+02  1.171E+00  3.213E+00  6.157E-04  1.033E-03 -4.442E-06
   1    4   60     1    60    2.4718E+00  1.0285E-03   2.4708E+00  0.000E+00  0.000E+00  0.000E+00  1.23321E+02  1.171E+00  3.213E+00  6.156E-04  1.033E-03 -4.094E-06
   1    4   61     1    61    2.4708E+00  1.0282E-03   2.4697E+00  0.000E+00  0.000E+00  0.000E+00  1.23020E+02  1.170E+00  3.213E+00  6.156E-04  1.032E-03 -3.658E-06
   1    4   62     1    62    2.4697E+00  1.0279E-03   2.4687E+00  0.000E+00  0.000E+00  0.000E+00  1.22720E+02  1.170E+00  3.213E+00  6.155E-04  1.031E-03 -3.115E-06
   1    4   63     1    63    2.4687E+00  1.0277E-03   2.4677E+00  0.000E+00  0.000E+00  0.000E+00  1.22420E+02  1.170E+00  3.212E+00  6.154E-04  1.030E-03 -2.443E-06
   1    4   64     1    64    2.4677E+00  1.0274E-03   2.4667E+00  0.000E+00  0.000E+00  0.000E+00  1.22120E+02  1.170E+00  3.212E+00  6.153E-04  1.029E-03 -1.615E-06
   1    4   65     1    65    2.4667E+00  1.0271E-03   2.4656E+00  0.000E+00  0.000E+00  0.000E+00  1.21819E+02  1.169E+00  3.212E+00  6.152E-04  1.028E-03 -6.017E-07
   1    4   66     1    66    2.4656E+00  1.0268E-03   2.4646E+00  0.000E+00  0.000E+00  0.000E+00  1.21519E+02  1.169E+00  3.211E+00  6.151E-04  1.026E-03  6.297E-07
   1    4   67     1    67    2.4646E+00  1.0265E-03   2.4636E+00  0.000E+00  0.000E+00  0.000E+00  1.21219E+02  1.169E+00  3.211E+00  6.151E-04  1.024E-03  2.117E-06
   1    4   68     1    68    2.4636E+00  1.0262E-03   2.4626E+00  0.000E+00  0.000E+00  0.000E+00  1.20919E+02  1.169E+00  3.211E+00  6.150E-04  1.022E-03  3.903E-06
   1    4   69     1    69    2.4626E+00  1.0259E-03   2.4615E+00  0.000E+00  0.000E+00  0.000E+00  1.20618E+02  1.168E+00  3.210E+00  6.149E-04  1.020E-03  6.031E-06
   1    4   70     1    70    2.4615E+00  1.0256E-03   2.4605E+00  0.000E+00  0.000E+00  0.000E+00  1.20318E+02  1.168E+00  3.210E+00  6.148E-04  1.017E-03  8.550E-06
   1    4   71     1    71    2.4605E+00  1.0253E-03   2.4595E+00  0.000E+00  0.000E+00  0.000E+00  1.20018E+02  1.168E+00  3.210E+00  6.147E-04  1.014E-03  1.151E-05
   1    4   72     1    72    2.4595E+00  1.0250E-03   2.4584E+00  0.000E+00  0.000E+00  0.000E+00  1.19718E+02  1.168E+00  3.210E+00  6.147E-04  1.010E-03  1.496E-05
   1    4   73     1    73    2.4584E+00  1.0247E-03   2.4574E+00  0.000E+00  0.000E+00  0.000E+00  1.19417E+02  1.167E+00  3.209E+00  6.146E-04  1.006E-03  1.896E-05
   1    4   74     1    74    2.4574E+00  1.0244E-03   2.4564E+00  0.000E+00  0.000E+00  0.000E+00  1.19117E+02  1.167E+00  3.209E+00  6.145E-04  1.001E-03  2.355E-05
   1    4   75     1    75    2.4564E+00  1.0242E-03   2.4554E+00  0.000E+00  0.000E+00  0.000E+00  1.18817E+02  1.167E+00  3.209E+00  6.144E-04  9.954E-04  2.877E-05
   1    4   76     1    76    2.4554E+00  1.0239E-03   2.4544E+00  0.000E+00  0.000E+00  0.000E+00  1.18517E+02  1.167E+00  3.208E+00  6.143E-04  9.892E-04  3.465E-05
   1    4   77     1    77    2.4544E+00  1.0236E-03   2.4533E+00  0.000E+00  0.000E+00  0.000E+00  1.18216E+02  1.166E+00  3.208E+00  6.142E-04  9.824E-04  4.122E-05
   1    4   78     1    78    2.4533E+00  1.0233E-03   2.4523E+00  0.000E+00  0.000E+00  0.000E+00  1.17916E+02  1.166E+00  3.208E+00  6.142E-04  9.748E-04  4.847E-05
   1    4   79     1    79    2.4523E+00  1.0230E-03   2.4513E+00  0.000E+00  0.000E+00  0.000E+00  1.17616E+02  1.166E+00  3.207E+00  6.141E-04  9.666E-04  5.638E-05
   1    4   80     1    80    2.4513E+00  1.0227E-03   2.4503E+00  0.000E+00  0.000E+00  0.000E+00  1.17316E+02  1.166E+00  3.207E+00  6.140E-04  9.578E-04  6.489E-05
   1    4   81     1    81    2.4503E+00  1.0224E-03   2.4492E+00  0.000E+00  0.000E+00  0.000E+00  1.17015E+02  1.165E+00  3.207E+00  6.139E-04  9.485E-04  7.394E-05
   1    4   82     1    82    2.4492E+00  1.0221E-03   2.4482E+00  0.000E+00  0.000E+00  0.000E+00  1.16715E+02  1.165E+00  3.207E+00  6.138E-04  9.387E-04  8.339E-05
   1    4   83     1    83    2.4482E+00  1.0218E-03   2.4472E+00  0.000E+00  0.000E+00  0.000E+00  1.16415E+02  1.165E+00  3.206E+00  6.138E-04  9.287E-04  9.308E-05
   1    4   84     1    84    2.4472E+00  1.0215E-03   2.4462E+00  0.000E+00  0.000E+00  0.000E+00  1.16115E+02  1.165E+00  3.206E+00  6.137E-04  9.187E-04  1.028E-04
   1    4   85     1    85    2.4462E+00  1.0212E-03   2.4451E+00  0.000E+00  0.000E+00  0.000E+00  1.15814E+02  1.164E+00  3.206E+00  6.136E-04  9.089E-04  1.124E-04
   1    4   86     1    86    2.4451E+00  1.0210E-03   2.4441E+00  0.000E+00  0.000E+00  0.000E+00  1.15514E+02  1.164E+00  3.205E+00  6.135E-04  8.996E-04  1.214E-04
   1    4   87     1    87    2.4441E+00  1.0207E-03   2.4431E+00  0.000E+00  0.000E+00  0.000E+00  1.15214E+02  1.164E+00  3.205E+00  6.134E-04  8.911E-04  1.296E-04
   1    4   88     1    88    2.4431E+00  1.0204E-03   2.4421E+00  0.000E+00  0.000E+00  0.000E+00  1.14914E+02  1.164E+00  3.205E+00  6.133E-04  8.838E-04  1.366E-04
   1    4   89     1    89    2.4421E+00  1.0201E-03   2.4411E+00  0.000E+00  0.000E+00  0.000E+00  1.14613E+02  1.163E+00  3.204E+00  6.133E-04  8.781E-04  1.420E-04
   1    4   90     1    90    2.4411E+00  1.0198E-03   2.4400E+00  0.000E+00  0.000E+00  0.000E+00  1.14313E+02  1.163E+00  3.204E+00  6.132E-04  8.744E-04  1.454E-04
   1    4   91     1    91    2.4400E+00  1.0195E-03   2.4390E+00  0.000E+00  0.000E+00  0.000E+00  1.14013E+02  1.163E+00  3.204E+00  6.131E-04  8.732E-04  1.463E-04
   1    4   92     1    92    2.4390E+00  1.0192E-03   2.4380E+00  0.000E+00  0.000E+00  0.000E+00  1.13713E+02  1.163E+00  3.203E+00  6.130E-04  8.748E-04  1.444E-04
   1    4   93     1    93    2.4380E+00  1.0189E-03   2.4370E+00  0.000E+00  0.000E+00  0.000E+00  1.13412E+02  1.162E+00  3.203E+00  6.129E-04  8.796E-04  1.393E-04
   1    4   94     1    94    2.4370E+00  1.0186E-03   2.4360E+00  0.000E+00  0.000E+00  0.000E+00  1.13112E+02  1.162E+00  3.203E+00  6.129E-04  8.882E-04  1.305E-04
   1    4   95     1    95    2.4360E+00  1.0183E-03   2.4350E+00  0.000E+00  0.000E+00  0.000E+00  1.12812E+02  1.162E+00  3.203E+00  6.128E-04  9.011E-04  1.173E-04
   1    4   96     1    96    2.4350E+00  1.0181E-03   2.4339E+00  0.000E+00  0.000E+00  0.000E+00  1.12512E+02  1.162E+00  3.202E+00  6.127E-04  4.329E-04  5.851E-04
   1    4   97     1    97    2.4339E+00  1.0178E-03   2.4329E+00  0.000E+00  0.000E+00  0.000E+00  1.12211E+02  1.161E+00  3.202E+00  6.126E-04  0.000E+00  1.018E-03
   1    4   98     1    98    2.4329E+00  1.0175E-03   2.4319E+00  0.000E+00  0.000E+00  0.000E+00  1.11911E+02  1.161E+00  3.202E+00  6.125E-04  0.000E+00  1.017E-03
   1    4   99     1    99    2.4319E+00  1.0172E-03   2.4309E+00  0.000E+00  0.000E+00  0.000E+00  1.11611E+02  1.161E+00  3.201E+00  6.124E-04  0.000E+00  1.017E-03
   1    4  100     1   100    2.4309E+00  1.0169E-03   2.4299E+00  0.000E+00  0.000E+00  0.000E+00  1.11311E+02  1.161E+00  3.201E+00  6.124E-04  0.000E+00  1.017E-03



1
  VOLUMETRIC BUDGET FOR UNSATURATED ZONE BENEATH STREAMS AT END OF TIME STEP    30 STRESS PERIOD   2
  ------------------------------------------------------------------------------------------------

    CUMULATIVE VOLUMES             L**3    RATES FOR THIS TIME STEP         L**3/T
    ------------------                     ------------------------


          STREAM LOSS =       355606.8072            STREAM LOSS =            0.1031
    CHANGE IN STORAGE =       283731.6571      CHANGE IN STORAGE =        3.8740E-02
       RECHARGE TO GW =        71875.1501         RECHARGE TO GW =        6.4395E-02

             TOTAL IN =       355606.8072               TOTAL IN =            0.1031

            TOTAL OUT =       355606.8072              TOTAL OUT =            0.1031

             IN - OUT =       -2.9104E-10               IN - OUT =            0.0000

  PERCENT DISCREPANCY =           -0.00      PERCENT DISCREPANCY =             0.00






  -------------------------------------------------------------------------------------
  VOLUMETRIC BUDGET FOR ENTIRE MODEL AT END OF TIME STEP   30 IN STRESS PERIOD      2
  -------------------------------------------------------------------------------------

     CUMULATIVE VOLUMES      L**3       RATES FOR THIS TIME STEP      L**3/T
     ------------------                 ------------------------

           IN:                                      IN:
           ---                                      ---
             STORAGE =     4967010.1825               STORAGE =           0.4515
       CONSTANT HEAD =           0.0000         CONSTANT HEAD =           0.0000
     HEAD DEP BOUNDS =           0.0000       HEAD DEP BOUNDS =           0.0000
      STREAM LEAKAGE =       71875.1501        STREAM LEAKAGE =       6.4395E-02

            TOTAL IN =     5038885.3326              TOTAL IN =           0.5159

          OUT:                                     OUT:
          ----                                     ----
             STORAGE =       24094.5993               STORAGE =       3.1619E-02
       CONSTANT HEAD =           0.0000         CONSTANT HEAD =           0.0000
     HEAD DEP BOUNDS =     5014791.3240       HEAD DEP BOUNDS =           0.4843
      STREAM LEAKAGE =           0.0000        STREAM LEAKAGE =           0.0000

           TOTAL OUT =     5038885.9233             TOTAL OUT =           0.5159

            IN - OUT =          -0.5907              IN - OUT =      -3.5198E-08

 PERCENT DISCREPANCY =          -0.00     PERCENT DISCREPANCY =          -0.00


          TIME SUMMARY AT END OF TIME STEP    30 IN STRESS PERIOD      2
                    SECONDS     MINUTES      HOURS       DAYS        YEARS
                    -----------------------------------------------------------
   TIME STEP LENGTH 2.49961E+05  4166.0      69.434      2.8931     7.92080E-03
 STRESS PERIOD TIME 2.59200E+06  43200.      720.00      30.000     8.21355E-02
         TOTAL TIME 5.18400E+06  86400.      1440.0      60.000     0.16427    
 
1
                            STRESS PERIOD NO.      3, LENGTH =   2592000.    
                            -----------------------------------------------

                              NUMBER OF TIME STEPS =    30

                               MULTIPLIER FOR DELT =     1.100

                            INITIAL TIME STEP SIZE =   15757.41    

 REUSING NON-PARAMETER GHB CELLS FROM LAST STRESS PERIOD

      7 GHB CELLS



 CLASSIFICATION & COUNT OF STREAM SEGMENTS BASED ON SOURCE OF INFLOW:

                HEADWATER     DIVERSION     RECEIVES TRIBUTARY FLOW
                ---------     ---------     -----------------------
                     1              0               0



                    INPUT DATA FOR EACH STREAM SEGMENT
 ---------------------------------------------------------------------------------------------

 SEGMENT    SEG.     INFLOW   OVERLAND   STREAM    STREAM   ICALC  OUTFLOW  DIVERSION PRIORITY
    NO.    LENGTH     RATE     RUNOFF      ET       PPT.    METH.  TO SEG.  FROM SEG.    NO.

      1  2.000E+04 3.840E+00 0.000E+00 0.000E+00 0.000E+00    2        0        0        0


         STREAMBED PROPERTIES AND STREAM DIMENSIONS

 SEGMENT     BED HYD. COND.      BED THICKNESS     ELEV.-TOP OF BED     WIDTH OF STREAM     DEPTH OF STREAM    STREAM ROUGHNESS
    No.     UPPER     LOWER     UPPER     LOWER     UPPER     LOWER     UPPER     LOWER     UPPER     LOWER   CHANNEL      BANK

     1  3.500E-07 3.500E-07                                                                                 3.000E-02 4.000E-02

  EIGHT POINT CROSS-SECTION DATA FOR SEGMENTS WITH ICALC = 2
    X VALUES X VALUES START FROM LEFT SIDE LOOKING DOWNSTREAM

     SEGMENT NO.        X1        X2        X3        X4        X5        X6        X7        X8
            1      0.000E+00 2.000E+00 4.000E+00 6.000E+00 8.000E+00 1.000E+01 1.200E+01 1.400E+01

    Z VALUES ARE RELATIVE TO STREAMBED ELEVATION

     SEGMENT NO.          Z1        Z2        Z3        Z4        Z5        Z6        Z7        Z8
            1      6.000E+00 4.500E+00 3.500E+00 0.000E+00 3.000E-01 3.500E+00 4.500E+00 6.000E+00
 
 SOLVING FOR HEAD 

 NO OUTPUT CONTROL FOR STRESS PERIOD      3   TIME STEP     1
 
 SOLVING FOR HEAD 

 NO OUTPUT CONTROL FOR STRESS PERIOD      3   TIME STEP     2
 
 SOLVING FOR HEAD 

 NO OUTPUT CONTROL FOR STRESS PERIOD      3   TIME STEP     3
 
 SOLVING FOR HEAD 

 NO OUTPUT CONTROL FOR STRESS PERIOD      3   TIME STEP     4
 
 SOLVING FOR HEAD 

 NO OUTPUT CONTROL FOR STRESS PERIOD      3   TIME STEP     5
 
 SOLVING FOR HEAD 

 NO OUTPUT CONTROL FOR STRESS PERIOD      3   TIME STEP     6
 
 SOLVING FOR HEAD 

 NO OUTPUT CONTROL FOR STRESS PERIOD      3   TIME STEP     7
 
 SOLVING FOR HEAD 

 NO OUTPUT CONTROL FOR STRESS PERIOD      3   TIME STEP     8
 
 SOLVING FOR HEAD 

 NO OUTPUT CONTROL FOR STRESS PERIOD      3   TIME STEP     9
 
 SOLVING FOR HEAD 

 NO OUTPUT CONTROL FOR STRESS PERIOD      3   TIME STEP    10
 
 SOLVING FOR HEAD 

 NO OUTPUT CONTROL FOR STRESS PERIOD      3   TIME STEP    11
 
 SOLVING FOR HEAD 

 NO OUTPUT CONTROL FOR STRESS PERIOD      3   TIME STEP    12
 
 SOLVING FOR HEAD 

 NO OUTPUT CONTROL FOR STRESS PERIOD      3   TIME STEP    13
 
 SOLVING FOR HEAD 

 NO OUTPUT CONTROL FOR STRESS PERIOD      3   TIME STEP    14
 
 SOLVING FOR HEAD 

 NO OUTPUT CONTROL FOR STRESS PERIOD      3   TIME STEP    15
 
 SOLVING FOR HEAD 

 NO OUTPUT CONTROL FOR STRESS PERIOD      3   TIME STEP    16
 
 SOLVING FOR HEAD 

 NO OUTPUT CONTROL FOR STRESS PERIOD      3   TIME STEP    17
 
 SOLVING FOR HEAD 

 NO OUTPUT CONTROL FOR STRESS PERIOD      3   TIME STEP    18
 
 SOLVING FOR HEAD 

 NO OUTPUT CONTROL FOR STRESS PERIOD      3   TIME STEP    19
 
 SOLVING FOR HEAD 

 NO OUTPUT CONTROL FOR STRESS PERIOD      3   TIME STEP    20
 
 SOLVING FOR HEAD 

 NO OUTPUT CONTROL FOR STRESS PERIOD      3   TIME STEP    21
 
 SOLVING FOR HEAD 

 NO OUTPUT CONTROL FOR STRESS PERIOD      3   TIME STEP    22
 
 SOLVING FOR HEAD 

 NO OUTPUT CONTROL FOR STRESS PERIOD      3   TIME STEP    23
 
 SOLVING FOR HEAD 

 NO OUTPUT CONTROL FOR STRESS PERIOD      3   TIME STEP    24
 
 SOLVING FOR HEAD 

 NO OUTPUT CONTROL FOR STRESS PERIOD      3   TIME STEP    25
 
 SOLVING FOR HEAD 

 NO OUTPUT CONTROL FOR STRESS PERIOD      3   TIME STEP    26
 
 SOLVING FOR HEAD 

 NO OUTPUT CONTROL FOR STRESS PERIOD      3   TIME STEP    27
 
 SOLVING FOR HEAD 

 NO OUTPUT CONTROL FOR STRESS PERIOD      3   TIME STEP    28
 
 SOLVING FOR HEAD 

 NO OUTPUT CONTROL FOR STRESS PERIOD      3   TIME STEP    29
 
 SOLVING FOR HEAD 

 NO OUTPUT CONTROL FOR STRESS PERIOD      3   TIME STEP    30



 STREAM LISTING     PERIOD      3   STEP       30

 LAYER ROW COL. STREAM  RCH.   FLOW INTO    STREAM     FLOW OUT OF   OVRLND.    DIRECT     STREAM      STREAM      STREAM     STREAM  STREAMBED   FLOW TO   CHNG. UNSAT. 
                SEG.NO.  NO.   STRM. RCH.    LOSS       STRM. RCH.   RUNOFF     PRECIP       ET         HEAD        DEPTH      WIDTH  CONDCTNC.   WAT. TAB.

   1    4    1     1     1    3.8400E+00  1.4068E-03   3.8386E+00  0.000E+00  0.000E+00  0.000E+00  1.41321E+02  1.471E+00  3.573E+00  7.137E-04  1.416E-03 -8.811E-06
   1    4    2     1     2    3.8386E+00  1.4065E-03   3.8372E+00  0.000E+00  0.000E+00  0.000E+00  1.41021E+02  1.471E+00  3.572E+00  7.136E-04  1.415E-03 -8.797E-06
   1    4    3     1     3    3.8372E+00  1.4061E-03   3.8358E+00  0.000E+00  0.000E+00  0.000E+00  1.40721E+02  1.471E+00  3.572E+00  7.135E-04  1.415E-03 -8.771E-06
   1    4    4     1     4    3.8358E+00  1.4057E-03   3.8344E+00  0.000E+00  0.000E+00  0.000E+00  1.40420E+02  1.470E+00  3.572E+00  7.134E-04  1.414E-03 -8.737E-06
   1    4    5     1     5    3.8344E+00  1.4053E-03   3.8330E+00  0.000E+00  0.000E+00  0.000E+00  1.40120E+02  1.470E+00  3.571E+00  7.133E-04  1.414E-03 -8.697E-06
   1    4    6     1     6    3.8330E+00  1.4049E-03   3.8316E+00  0.000E+00  0.000E+00  0.000E+00  1.39820E+02  1.470E+00  3.571E+00  7.133E-04  1.414E-03 -8.654E-06
   1    4    7     1     7    3.8316E+00  1.4046E-03   3.8302E+00  0.000E+00  0.000E+00  0.000E+00  1.39519E+02  1.469E+00  3.571E+00  7.132E-04  1.413E-03 -8.613E-06
   1    4    8     1     8    3.8302E+00  1.4042E-03   3.8288E+00  0.000E+00  0.000E+00  0.000E+00  1.39219E+02  1.469E+00  3.570E+00  7.131E-04  1.413E-03 -8.574E-06
   1    4    9     1     9    3.8288E+00  1.4038E-03   3.8274E+00  0.000E+00  0.000E+00  0.000E+00  1.38919E+02  1.469E+00  3.570E+00  7.130E-04  1.412E-03 -8.539E-06
   1    4   10     1    10    3.8274E+00  1.4034E-03   3.8259E+00  0.000E+00  0.000E+00  0.000E+00  1.38619E+02  1.469E+00  3.570E+00  7.129E-04  1.412E-03 -8.510E-06
   1    4   11     1    11    3.8259E+00  1.4030E-03   3.8245E+00  0.000E+00  0.000E+00  0.000E+00  1.38318E+02  1.468E+00  3.569E+00  7.128E-04  1.412E-03 -8.485E-06
   1    4   12     1    12    3.8245E+00  1.4027E-03   3.8231E+00  0.000E+00  0.000E+00  0.000E+00  1.38018E+02  1.468E+00  3.569E+00  7.127E-04  1.411E-03 -8.464E-06
   1    4   13     1    13    3.8231E+00  1.4023E-03   3.8217E+00  0.000E+00  0.000E+00  0.000E+00  1.37718E+02  1.468E+00  3.569E+00  7.126E-04  1.411E-03 -8.448E-06
   1    4   14     1    14    3.8217E+00  1.4019E-03   3.8203E+00  0.000E+00  0.000E+00  0.000E+00  1.37418E+02  1.468E+00  3.568E+00  7.125E-04  1.410E-03 -8.435E-06
   1    4   15     1    15    3.8203E+00  1.4015E-03   3.8189E+00  0.000E+00  0.000E+00  0.000E+00  1.37117E+02  1.467E+00  3.568E+00  7.124E-04  1.410E-03 -8.424E-06
   1    4   16     1    16    3.8189E+00  1.4012E-03   3.8175E+00  0.000E+00  0.000E+00  0.000E+00  1.36817E+02  1.467E+00  3.568E+00  7.123E-04  1.410E-03 -8.416E-06
   1    4   17     1    17    3.8175E+00  1.4008E-03   3.8161E+00  0.000E+00  0.000E+00  0.000E+00  1.36517E+02  1.467E+00  3.567E+00  7.122E-04  1.409E-03 -8.409E-06
   1    4   18     1    18    3.8161E+00  1.4004E-03   3.8147E+00  0.000E+00  0.000E+00  0.000E+00  1.36216E+02  1.466E+00  3.567E+00  7.122E-04  1.409E-03 -8.403E-06
   1    4   19     1    19    3.8147E+00  1.4000E-03   3.8133E+00  0.000E+00  0.000E+00  0.000E+00  1.35916E+02  1.466E+00  3.567E+00  7.121E-04  1.408E-03 -8.398E-06
   1    4   20     1    20    3.8133E+00  1.3996E-03   3.8119E+00  0.000E+00  0.000E+00  0.000E+00  1.35616E+02  1.466E+00  3.566E+00  7.120E-04  1.408E-03 -8.393E-06
   1    4   21     1    21    3.8119E+00  1.3993E-03   3.8105E+00  0.000E+00  0.000E+00  0.000E+00  1.35316E+02  1.466E+00  3.566E+00  7.119E-04  1.408E-03 -8.388E-06
   1    4   22     1    22    3.8105E+00  1.3989E-03   3.8091E+00  0.000E+00  0.000E+00  0.000E+00  1.35015E+02  1.465E+00  3.566E+00  7.118E-04  1.407E-03 -8.384E-06
   1    4   23     1    23    3.8091E+00  1.3985E-03   3.8077E+00  0.000E+00  0.000E+00  0.000E+00  1.34715E+02  1.465E+00  3.565E+00  7.117E-04  1.407E-03 -8.380E-06
   1    4   24     1    24    3.8077E+00  1.3981E-03   3.8063E+00  0.000E+00  0.000E+00  0.000E+00  1.34415E+02  1.465E+00  3.565E+00  7.116E-04  1.407E-03 -8.376E-06
   1    4   25     1    25    3.8063E+00  1.3978E-03   3.8049E+00  0.000E+00  0.000E+00  0.000E+00  1.34114E+02  1.464E+00  3.565E+00  7.115E-04  1.406E-03 -8.373E-06
   1    4   26     1    26    3.8049E+00  1.3974E-03   3.8035E+00  0.000E+00  0.000E+00  0.000E+00  1.33814E+02  1.464E+00  3.564E+00  7.114E-04  1.406E-03 -8.369E-06
   1    4   27     1    27    3.8035E+00  1.3970E-03   3.8021E+00  0.000E+00  0.000E+00  0.000E+00  1.33514E+02  1.464E+00  3.564E+00  7.113E-04  1.405E-03 -8.366E-06
   1    4   28     1    28    3.8021E+00  1.3966E-03   3.8008E+00  0.000E+00  0.000E+00  0.000E+00  1.33214E+02  1.464E+00  3.564E+00  7.112E-04  1.405E-03 -8.363E-06
   1    4   29     1    29    3.8008E+00  1.3962E-03   3.7994E+00  0.000E+00  0.000E+00  0.000E+00  1.32913E+02  1.463E+00  3.563E+00  7.112E-04  1.405E-03 -8.360E-06
   1    4   30     1    30    3.7994E+00  1.3959E-03   3.7980E+00  0.000E+00  0.000E+00  0.000E+00  1.32613E+02  1.463E+00  3.563E+00  7.111E-04  1.404E-03 -8.357E-06
   1    4   31     1    31    3.7980E+00  1.3955E-03   3.7966E+00  0.000E+00  0.000E+00  0.000E+00  1.32313E+02  1.463E+00  3.563E+00  7.110E-04  1.404E-03 -8.354E-06
   1    4   32     1    32    3.7966E+00  1.3951E-03   3.7952E+00  0.000E+00  0.000E+00  0.000E+00  1.32013E+02  1.463E+00  3.562E+00  7.109E-04  1.403E-03 -8.350E-06
   1    4   33     1    33    3.7952E+00  1.3947E-03   3.7938E+00  0.000E+00  0.000E+00  0.000E+00  1.31712E+02  1.462E+00  3.562E+00  7.108E-04  1.403E-03 -8.346E-06
   1    4   34     1    34    3.7938E+00  1.3944E-03   3.7924E+00  0.000E+00  0.000E+00  0.000E+00  1.31412E+02  1.462E+00  3.562E+00  7.107E-04  1.403E-03 -8.341E-06
   1    4   35     1    35    3.7924E+00  1.3940E-03   3.7910E+00  0.000E+00  0.000E+00  0.000E+00  1.31112E+02  1.462E+00  3.561E+00  7.106E-04  1.402E-03 -8.335E-06
   1    4   36     1    36    3.7910E+00  1.3936E-03   3.7896E+00  0.000E+00  0.000E+00  0.000E+00  1.30811E+02  1.461E+00  3.561E+00  7.105E-04  1.402E-03 -8.327E-06
   1    4   37     1    37    3.7896E+00  1.3932E-03   3.7882E+00  0.000E+00  0.000E+00  0.000E+00  1.30511E+02  1.461E+00  3.561E+00  7.104E-04  1.402E-03 -8.319E-06
   1    4   38     1    38    3.7882E+00  1.3928E-03   3.7868E+00  0.000E+00  0.000E+00  0.000E+00  1.30211E+02  1.461E+00  3.560E+00  7.103E-04  1.401E-03 -8.308E-06
   1    4   39     1    39    3.7868E+00  1.3925E-03   3.7854E+00  0.000E+00  0.000E+00  0.000E+00  1.29911E+02  1.461E+00  3.560E+00  7.102E-04  1.401E-03 -8.295E-06
   1    4   40     1    40    3.7854E+00  1.3921E-03   3.7840E+00  0.000E+00  0.000E+00  0.000E+00  1.29610E+02  1.460E+00  3.560E+00  7.102E-04  1.400E-03 -8.279E-06
   1    4   41     1    41    3.7840E+00  1.3917E-03   3.7826E+00  0.000E+00  0.000E+00  0.000E+00  1.29310E+02  1.460E+00  3.559E+00  7.101E-04  1.400E-03 -8.260E-06
   1    4   42     1    42    3.7826E+00  1.3913E-03   3.7812E+00  0.000E+00  0.000E+00  0.000E+00  1.29010E+02  1.460E+00  3.559E+00  7.100E-04  1.400E-03 -8.235E-06
   1    4   43     1    43    3.7812E+00  1.3910E-03   3.7798E+00  0.000E+00  0.000E+00  0.000E+00  1.28709E+02  1.459E+00  3.559E+00  7.099E-04  1.399E-03 -8.204E-06
   1    4   44     1    44    3.7798E+00  1.3906E-03   3.7785E+00  0.000E+00  0.000E+00  0.000E+00  1.28409E+02  1.459E+00  3.558E+00  7.098E-04  1.399E-03 -8.166E-06
   1    4   45     1    45    3.7785E+00  1.3902E-03   3.7771E+00  0.000E+00  0.000E+00  0.000E+00  1.28109E+02  1.459E+00  3.558E+00  7.097E-04  1.398E-03 -8.118E-06
   1    4   46     1    46    3.7771E+00  1.3898E-03   3.7757E+00  0.000E+00  0.000E+00  0.000E+00  1.27809E+02  1.459E+00  3.558E+00  7.096E-04  1.398E-03 -8.059E-06
   1    4   47     1    47    3.7757E+00  1.3895E-03   3.7743E+00  0.000E+00  0.000E+00  0.000E+00  1.27508E+02  1.458E+00  3.557E+00  7.095E-04  1.397E-03 -7.985E-06
   1    4   48     1    48    3.7743E+00  1.3891E-03   3.7729E+00  0.000E+00  0.000E+00  0.000E+00  1.27208E+02  1.458E+00  3.557E+00  7.094E-04  1.397E-03 -7.893E-06
   1    4   49     1    49    3.7729E+00  1.3887E-03   3.7715E+00  0.000E+00  0.000E+00  0.000E+00  1.26908E+02  1.458E+00  3.557E+00  7.093E-04  1.396E-03 -7.779E-06
   1    4   50     1    50    3.7715E+00  1.3883E-03   3.7701E+00  0.000E+00  0.000E+00  0.000E+00  1.26607E+02  1.457E+00  3.556E+00  7.092E-04  1.396E-03 -7.639E-06
   1    4   51     1    51    3.7701E+00  1.3880E-03   3.7687E+00  0.000E+00  0.000E+00  0.000E+00  1.26307E+02  1.457E+00  3.556E+00  7.092E-04  1.395E-03 -7.466E-06
   1    4   52     1    52    3.7687E+00  1.3876E-03   3.7673E+00  0.000E+00  0.000E+00  0.000E+00  1.26007E+02  1.457E+00  3.556E+00  7.091E-04  1.395E-03 -7.254E-06
   1    4   53     1    53    3.7673E+00  1.3872E-03   3.7660E+00  0.000E+00  0.000E+00  0.000E+00  1.25707E+02  1.457E+00  3.555E+00  7.090E-04  1.394E-03 -6.995E-06
   1    4   54     1    54    3.7660E+00  1.3868E-03   3.7646E+00  0.000E+00  0.000E+00  0.000E+00  1.25406E+02  1.456E+00  3.555E+00  7.089E-04  1.394E-03 -6.681E-06
   1    4   55     1    55    3.7646E+00  1.3865E-03   3.7632E+00  0.000E+00  0.000E+00  0.000E+00  1.25106E+02  1.456E+00  3.555E+00  7.088E-04  1.393E-03 -6.301E-06
   1    4   56     1    56    3.7632E+00  1.3861E-03   3.7618E+00  0.000E+00  0.000E+00  0.000E+00  1.24806E+02  1.456E+00  3.554E+00  7.087E-04  1.392E-03 -5.843E-06
   1    4   57     1    57    3.7618E+00  1.3857E-03   3.7604E+00  0.000E+00  0.000E+00  0.000E+00  1.24506E+02  1.456E+00  3.554E+00  7.086E-04  1.391E-03 -5.294E-06
   1    4   58     1    58    3.7604E+00  1.3853E-03   3.7590E+00  0.000E+00  0.000E+00  0.000E+00  1.24205E+02  1.455E+00  3.554E+00  7.085E-04  1.390E-03 -4.639E-06
   1    4   59     1    59    3.7590E+00  1.3850E-03   3.7576E+00  0.000E+00  0.000E+00  0.000E+00  1.23905E+02  1.455E+00  3.553E+00  7.084E-04  1.389E-03 -3.861E-06
   1    4   60     1    60    3.7576E+00  1.3846E-03   3.7563E+00  0.000E+00  0.000E+00  0.000E+00  1.23605E+02  1.455E+00  3.553E+00  7.083E-04  1.388E-03 -2.944E-06
   1    4   61     1    61    3.7563E+00  1.3842E-03   3.7549E+00  0.000E+00  0.000E+00  0.000E+00  1.23304E+02  1.454E+00  3.553E+00  7.082E-04  1.386E-03 -1.867E-06
   1    4   62     1    62    3.7549E+00  1.3838E-03   3.7535E+00  0.000E+00  0.000E+00  0.000E+00  1.23004E+02  1.454E+00  3.552E+00  7.082E-04  1.384E-03 -6.092E-07
   1    4   63     1    63    3.7535E+00  1.3835E-03   3.7521E+00  0.000E+00  0.000E+00  0.000E+00  1.22704E+02  1.454E+00  3.552E+00  7.081E-04  1.383E-03  8.509E-07
   1    4   64     1    64    3.7521E+00  1.3831E-03   3.7507E+00  0.000E+00  0.000E+00  0.000E+00  1.22404E+02  1.454E+00  3.552E+00  7.080E-04  1.381E-03  2.536E-06
   1    4   65     1    65    3.7507E+00  1.3827E-03   3.7493E+00  0.000E+00  0.000E+00  0.000E+00  1.22103E+02  1.453E+00  3.551E+00  7.079E-04  1.378E-03  4.470E-06
   1    4   66     1    66    3.7493E+00  1.3823E-03   3.7480E+00  0.000E+00  0.000E+00  0.000E+00  1.21803E+02  1.453E+00  3.551E+00  7.078E-04  1.376E-03  6.674E-06
   1    4   67     1    67    3.7480E+00  1.3820E-03   3.7466E+00  0.000E+00  0.000E+00  0.000E+00  1.21503E+02  1.453E+00  3.551E+00  7.077E-04  1.373E-03  9.171E-06
   1    4   68     1    68    3.7466E+00  1.3816E-03   3.7452E+00  0.000E+00  0.000E+00  0.000E+00  1.21202E+02  1.452E+00  3.550E+00  7.076E-04  1.370E-03  1.198E-05
   1    4   69     1    69    3.7452E+00  1.3812E-03   3.7438E+00  0.000E+00  0.000E+00  0.000E+00  1.20902E+02  1.452E+00  3.550E+00  7.075E-04  1.366E-03  1.512E-05
   1    4   70     1    70    3.7438E+00  1.3808E-03   3.7424E+00  0.000E+00  0.000E+00  0.000E+00  1.20602E+02  1.452E+00  3.550E+00  7.074E-04  1.362E-03  1.860E-05
   1    4   71     1    71    3.7424E+00  1.3805E-03   3.7411E+00  0.000E+00  0.000E+00  0.000E+00  1.20302E+02  1.452E+00  3.549E+00  7.073E-04  1.358E-03  2.244E-05
   1    4   72     1    72    3.7411E+00  1.3801E-03   3.7397E+00  0.000E+00  0.000E+00  0.000E+00  1.20001E+02  1.451E+00  3.549E+00  7.072E-04  1.353E-03  2.663E-05
   1    4   73     1    73    3.7397E+00  1.3797E-03   3.7383E+00  0.000E+00  0.000E+00  0.000E+00  1.19701E+02  1.451E+00  3.549E+00  7.072E-04  1.349E-03  3.117E-05
   1    4   74     1    74    3.7383E+00  1.3793E-03   3.7369E+00  0.000E+00  0.000E+00  0.000E+00  1.19401E+02  1.451E+00  3.548E+00  7.071E-04  1.343E-03  3.605E-05
   1    4   75     1    75    3.7369E+00  1.3790E-03   3.7355E+00  0.000E+00  0.000E+00  0.000E+00  1.19101E+02  1.451E+00  3.548E+00  7.070E-04  1.338E-03  4.124E-05
   1    4   76     1    76    3.7355E+00  1.3786E-03   3.7342E+00  0.000E+00  0.000E+00  0.000E+00  1.18800E+02  1.450E+00  3.548E+00  7.069E-04  1.332E-03  4.671E-05
   1    4   77     1    77    3.7342E+00  1.3782E-03   3.7328E+00  0.000E+00  0.000E+00  0.000E+00  1.18500E+02  1.450E+00  3.547E+00  7.068E-04  1.326E-03  5.241E-05
   1    4   78     1    78    3.7328E+00  1.3778E-03   3.7314E+00  0.000E+00  0.000E+00  0.000E+00  1.18200E+02  1.450E+00  3.547E+00  7.067E-04  1.320E-03  5.828E-05
   1    4   79     1    79    3.7314E+00  1.3775E-03   3.7300E+00  0.000E+00  0.000E+00  0.000E+00  1.17899E+02  1.449E+00  3.547E+00  7.066E-04  1.313E-03  6.426E-05
   1    4   80     1    80    3.7300E+00  1.3771E-03   3.7286E+00  0.000E+00  0.000E+00  0.000E+00  1.17599E+02  1.449E+00  3.546E+00  7.065E-04  1.307E-03  7.025E-05
   1    4   81     1    81    3.7286E+00  1.3767E-03   3.7273E+00  0.000E+00  0.000E+00  0.000E+00  1.17299E+02  1.449E+00  3.546E+00  7.064E-04  1.301E-03  7.615E-05
   1    4   82     1    82    3.7273E+00  1.3764E-03   3.7259E+00  0.000E+00  0.000E+00  0.000E+00  1.16999E+02  1.449E+00  3.546E+00  7.063E-04  1.294E-03  8.186E-05
   1    4   83     1    83    3.7259E+00  1.3760E-03   3.7245E+00  0.000E+00  0.000E+00  0.000E+00  1.16698E+02  1.448E+00  3.545E+00  7.062E-04  1.289E-03  8.724E-05
   1    4   84     1    84    3.7245E+00  1.3756E-03   3.7231E+00  0.000E+00  0.000E+00  0.000E+00  1.16398E+02  1.448E+00  3.545E+00  7.062E-04  1.283E-03  9.216E-05
   1    4   85     1    85    3.7231E+00  1.3752E-03   3.7218E+00  0.000E+00  0.000E+00  0.000E+00  1.16098E+02  1.448E+00  3.545E+00  7.061E-04  1.279E-03  9.647E-05
   1    4   86     1    86    3.7218E+00  1.3749E-03   3.7204E+00  0.000E+00  0.000E+00  0.000E+00  1.15797E+02  1.447E+00  3.544E+00  7.060E-04  1.275E-03  1.000E-04
   1    4   87     1    87    3.7204E+00  1.3745E-03   3.7190E+00  0.000E+00  0.000E+00  0.000E+00  1.15497E+02  1.447E+00  3.544E+00  7.059E-04  1.272E-03  1.027E-04
   1    4   88     1    88    3.7190E+00  1.3741E-03   3.7176E+00  0.000E+00  0.000E+00  0.000E+00  1.15197E+02  1.447E+00  3.544E+00  7.058E-04  1.270E-03  1.042E-04
   1    4   89     1    89    3.7176E+00  1.3737E-03   3.7163E+00  0.000E+00  0.000E+00  0.000E+00  1.14897E+02  1.447E+00  3.543E+00  7.057E-04  1.269E-03  1.046E-04
   1    4   90     1    90    3.7163E+00  1.3734E-03   3.7149E+00  0.000E+00  0.000E+00  0.000E+00  1.14596E+02  1.446E+00  3.543E+00  7.056E-04  1.270E-03  1.035E-04
   1    4   91     1    91    3.7149E+00  1.3730E-03   3.7135E+00  0.000E+00  0.000E+00  0.000E+00  1.14296E+02  1.446E+00  3.543E+00  7.055E-04  1.272E-03  1.010E-04
   1    4   92     1    92    3.7135E+00  1.3726E-03   3.7121E+00  0.000E+00  0.000E+00  0.000E+00  1.13996E+02  1.446E+00  3.542E+00  7.054E-04  1.276E-03  9.683E-05
   1    4   93     1    93    3.7121E+00  1.3723E-03   3.7108E+00  0.000E+00  0.000E+00  0.000E+00  1.13696E+02  1.446E+00  3.542E+00  7.053E-04  1.281E-03  9.093E-05
   1    4   94     1    94    3.7108E+00  1.3719E-03   3.7094E+00  0.000E+00  0.000E+00  0.000E+00  1.13395E+02  1.445E+00  3.542E+00  7.052E-04  1.289E-03  8.324E-05
   1    4   95     1    95    3.7094E+00  1.3715E-03   3.7080E+00  0.000E+00  0.000E+00  0.000E+00  1.13095E+02  1.445E+00  3.541E+00  7.052E-04  1.298E-03  7.371E-05
   1    4   96     1    96    3.7080E+00  1.3711E-03   3.7067E+00  0.000E+00  0.000E+00  0.000E+00  1.12795E+02  1.445E+00  3.541E+00  7.051E-04  1.309E-03  6.235E-05
   1    4   97     1    97    3.7067E+00  1.3708E-03   3.7053E+00  0.000E+00  0.000E+00  0.000E+00  1.12494E+02  1.444E+00  3.541E+00  7.050E-04  1.322E-03  4.920E-05
   1    4   98     1    98    3.7053E+00  1.3704E-03   3.7039E+00  0.000E+00  0.000E+00  0.000E+00  1.12194E+02  1.444E+00  3.540E+00  7.049E-04  1.336E-03  3.435E-05
   1    4   99     1    99    3.7039E+00  1.3700E-03   3.7026E+00  0.000E+00  0.000E+00  0.000E+00  1.11894E+02  1.444E+00  3.540E+00  7.048E-04  1.352E-03  1.792E-05
   1    4  100     1   100    3.7026E+00  1.3697E-03   3.7012E+00  0.000E+00  0.000E+00  0.000E+00  1.11594E+02  1.444E+00  3.540E+00  7.047E-04  0.000E+00  0.000E+00



1
  VOLUMETRIC BUDGET FOR UNSATURATED ZONE BENEATH STREAMS AT END OF TIME STEP    30 STRESS PERIOD   3
  ------------------------------------------------------------------------------------------------

    CUMULATIVE VOLUMES             L**3    RATES FOR THIS TIME STEP         L**3/T
    ------------------                     ------------------------


          STREAM LOSS =       715423.2174            STREAM LOSS =            0.1388
    CHANGE IN STORAGE =       332069.7101      CHANGE IN STORAGE =        1.5992E-03
       RECHARGE TO GW =       383353.5073         RECHARGE TO GW =            0.1372

             TOTAL IN =       715423.2174               TOTAL IN =            0.1388

            TOTAL OUT =       715423.2174              TOTAL OUT =            0.1388

             IN - OUT =       -2.9104E-09               IN - OUT =            0.0000

  PERCENT DISCREPANCY =           -0.00      PERCENT DISCREPANCY =             0.00






  -------------------------------------------------------------------------------------
  VOLUMETRIC BUDGET FOR ENTIRE MODEL AT END OF TIME STEP   30 IN STRESS PERIOD      3
  -------------------------------------------------------------------------------------

     CUMULATIVE VOLUMES      L**3       RATES FOR THIS TIME STEP      L**3/T
     ------------------                 ------------------------

           IN:                                      IN:
           ---                                      ---
             STORAGE =     5978363.1051               STORAGE =           0.3504
       CONSTANT HEAD =           0.0000         CONSTANT HEAD =           0.0000
     HEAD DEP BOUNDS =           0.0000       HEAD DEP BOUNDS =           0.0000
      STREAM LEAKAGE =      383353.5073        STREAM LEAKAGE =           0.1372

            TOTAL IN =     6361716.6124              TOTAL IN =           0.4876

          OUT:                                     OUT:
          ----                                     ----
             STORAGE =      206694.5011               STORAGE =       8.0270E-02
       CONSTANT HEAD =           0.0000         CONSTANT HEAD =           0.0000
     HEAD DEP BOUNDS =     6155022.9301       HEAD DEP BOUNDS =           0.4073
      STREAM LEAKAGE =           0.0000        STREAM LEAKAGE =           0.0000

           TOTAL OUT =     6361717.4312             TOTAL OUT =           0.4876

            IN - OUT =          -0.8188              IN - OUT =      -4.8385E-08

 PERCENT DISCREPANCY =          -0.00     PERCENT DISCREPANCY =          -0.00


          TIME SUMMARY AT END OF TIME STEP    30 IN STRESS PERIOD      3
                    SECONDS     MINUTES      HOURS       DAYS        YEARS
                    -----------------------------------------------------------
   TIME STEP LENGTH 2.49961E+05  4166.0      69.434      2.8931     7.92080E-03
 STRESS PERIOD TIME 2.59200E+06  43200.      720.00      30.000     8.21355E-02
         TOTAL TIME 7.77600E+06 1.29600E+05  2160.0      90.000     0.24641    
 
1
                            STRESS PERIOD NO.      4, LENGTH =   2592000.    
                            -----------------------------------------------

                              NUMBER OF TIME STEPS =    30

                               MULTIPLIER FOR DELT =     1.100

                            INITIAL TIME STEP SIZE =   15757.41    

 REUSING NON-PARAMETER GHB CELLS FROM LAST STRESS PERIOD

      7 GHB CELLS



 CLASSIFICATION & COUNT OF STREAM SEGMENTS BASED ON SOURCE OF INFLOW:

                HEADWATER     DIVERSION     RECEIVES TRIBUTARY FLOW
                ---------     ---------     -----------------------
                     1              0               0



                    INPUT DATA FOR EACH STREAM SEGMENT
 ---------------------------------------------------------------------------------------------

 SEGMENT    SEG.     INFLOW   OVERLAND   STREAM    STREAM   ICALC  OUTFLOW  DIVERSION PRIORITY
    NO.    LENGTH     RATE     RUNOFF      ET       PPT.    METH.  TO SEG.  FROM SEG.    NO.

      1  2.000E+04 1.785E+01 0.000E+00 0.000E+00 0.000E+00    2        0        0        0


         STREAMBED PROPERTIES AND STREAM DIMENSIONS

 SEGMENT     BED HYD. COND.      BED THICKNESS     ELEV.-TOP OF BED     WIDTH OF STREAM     DEPTH OF STREAM    STREAM ROUGHNESS
    No.     UPPER     LOWER     UPPER     LOWER     UPPER     LOWER     UPPER     LOWER     UPPER     LOWER   CHANNEL      BANK

     1  3.500E-07 3.500E-07                                                                                 3.000E-02 4.000E-02

  EIGHT POINT CROSS-SECTION DATA FOR SEGMENTS WITH ICALC = 2
    X VALUES X VALUES START FROM LEFT SIDE LOOKING DOWNSTREAM

     SEGMENT NO.        X1        X2        X3        X4        X5        X6        X7        X8
            1      0.000E+00 2.000E+00 4.000E+00 6.000E+00 8.000E+00 1.000E+01 1.200E+01 1.400E+01

    Z VALUES ARE RELATIVE TO STREAMBED ELEVATION

     SEGMENT NO.          Z1        Z2        Z3        Z4        Z5        Z6        Z7        Z8
            1      6.000E+00 4.500E+00 3.500E+00 0.000E+00 3.000E-01 3.500E+00 4.500E+00 6.000E+00
 
 SOLVING FOR HEAD 

 NO OUTPUT CONTROL FOR STRESS PERIOD      4   TIME STEP     1
 
 SOLVING FOR HEAD 

 NO OUTPUT CONTROL FOR STRESS PERIOD      4   TIME STEP     2
 
 SOLVING FOR HEAD 

 NO OUTPUT CONTROL FOR STRESS PERIOD      4   TIME STEP     3
 
 SOLVING FOR HEAD 

 NO OUTPUT CONTROL FOR STRESS PERIOD      4   TIME STEP     4
 
 SOLVING FOR HEAD 

 NO OUTPUT CONTROL FOR STRESS PERIOD      4   TIME STEP     5
 
 SOLVING FOR HEAD 

 NO OUTPUT CONTROL FOR STRESS PERIOD      4   TIME STEP     6
 
 SOLVING FOR HEAD 

 NO OUTPUT CONTROL FOR STRESS PERIOD      4   TIME STEP     7
 
 SOLVING FOR HEAD 

 NO OUTPUT CONTROL FOR STRESS PERIOD      4   TIME STEP     8
 
 SOLVING FOR HEAD 

 NO OUTPUT CONTROL FOR STRESS PERIOD      4   TIME STEP     9
 
 SOLVING FOR HEAD 

 NO OUTPUT CONTROL FOR STRESS PERIOD      4   TIME STEP    10
 
 SOLVING FOR HEAD 

 NO OUTPUT CONTROL FOR STRESS PERIOD      4   TIME STEP    11
 
 SOLVING FOR HEAD 

 NO OUTPUT CONTROL FOR STRESS PERIOD      4   TIME STEP    12
 
 SOLVING FOR HEAD 

 NO OUTPUT CONTROL FOR STRESS PERIOD      4   TIME STEP    13
 
 SOLVING FOR HEAD 

 NO OUTPUT CONTROL FOR STRESS PERIOD      4   TIME STEP    14
 
 SOLVING FOR HEAD 

 NO OUTPUT CONTROL FOR STRESS PERIOD      4   TIME STEP    15
 
 SOLVING FOR HEAD 

 NO OUTPUT CONTROL FOR STRESS PERIOD      4   TIME STEP    16
 
 SOLVING FOR HEAD 

 NO OUTPUT CONTROL FOR STRESS PERIOD      4   TIME STEP    17
 
 SOLVING FOR HEAD 

 NO OUTPUT CONTROL FOR STRESS PERIOD      4   TIME STEP    18
 
 SOLVING FOR HEAD 

 NO OUTPUT CONTROL FOR STRESS PERIOD      4   TIME STEP    19
 
 SOLVING FOR HEAD 

 NO OUTPUT CONTROL FOR STRESS PERIOD      4   TIME STEP    20
 
 SOLVING FOR HEAD 

 NO OUTPUT CONTROL FOR STRESS PERIOD      4   TIME STEP    21
 
 SOLVING FOR HEAD 

 NO OUTPUT CONTROL FOR STRESS PERIOD      4   TIME STEP    22
 
 SOLVING FOR HEAD 

 NO OUTPUT CONTROL FOR STRESS PERIOD      4   TIME STEP    23
 
 SOLVING FOR HEAD 

 NO OUTPUT CONTROL FOR STRESS PERIOD      4   TIME STEP    24
 
 SOLVING FOR HEAD 

 NO OUTPUT CONTROL FOR STRESS PERIOD      4   TIME STEP    25
 
 SOLVING FOR HEAD 

 NO OUTPUT CONTROL FOR STRESS PERIOD      4   TIME STEP    26
 
 SOLVING FOR HEAD 

 NO OUTPUT CONTROL FOR STRESS PERIOD      4   TIME STEP    27
 
 SOLVING FOR HEAD 

 NO OUTPUT CONTROL FOR STRESS PERIOD      4   TIME STEP    28
 
 SOLVING FOR HEAD 

 NO OUTPUT CONTROL FOR STRESS PERIOD      4   TIME STEP    29
 
 SOLVING FOR HEAD 

 NO OUTPUT CONTROL FOR STRESS PERIOD      4   TIME STEP    30



 STREAM LISTING     PERIOD      4   STEP       30

 LAYER ROW COL. STREAM  RCH.   FLOW INTO    STREAM     FLOW OUT OF   OVRLND.    DIRECT     STREAM      STREAM      STREAM     STREAM  STREAMBED   FLOW TO   CHNG. UNSAT. 
                SEG.NO.  NO.   STRM. RCH.    LOSS       STRM. RCH.   RUNOFF     PRECIP       ET         HEAD        DEPTH      WIDTH  CONDCTNC.   WAT. TAB.

   1    4    1     1     1    1.7850E+01  4.7593E-03   1.7845E+01  0.000E+00  0.000E+00  0.000E+00  1.43063E+02  3.213E+00  5.656E+00  1.282E-03  4.223E-03  5.477E-04
   1    4    2     1     2    1.7845E+01  4.7583E-03   1.7840E+01  0.000E+00  0.000E+00  0.000E+00  1.42762E+02  3.212E+00  5.656E+00  1.282E-03  4.222E-03  5.472E-04
   1    4    3     1     3    1.7840E+01  4.7572E-03   1.7836E+01  0.000E+00  0.000E+00  0.000E+00  1.42462E+02  3.212E+00  5.655E+00  1.282E-03  4.222E-03  5.467E-04
   1    4    4     1     4    1.7836E+01  4.7562E-03   1.7831E+01  0.000E+00  0.000E+00  0.000E+00  1.42161E+02  3.211E+00  5.655E+00  1.282E-03  4.221E-03  5.463E-04
   1    4    5     1     5    1.7831E+01  4.7551E-03   1.7826E+01  0.000E+00  0.000E+00  0.000E+00  1.41861E+02  3.211E+00  5.654E+00  1.281E-03  4.221E-03  5.458E-04
   1    4    6     1     6    1.7826E+01  4.7541E-03   1.7821E+01  0.000E+00  0.000E+00  0.000E+00  1.41560E+02  3.210E+00  5.654E+00  1.281E-03  4.220E-03  5.453E-04
   1    4    7     1     7    1.7821E+01  4.7530E-03   1.7817E+01  0.000E+00  0.000E+00  0.000E+00  1.41260E+02  3.210E+00  5.653E+00  1.281E-03  4.219E-03  5.448E-04
   1    4    8     1     8    1.7817E+01  4.7520E-03   1.7812E+01  0.000E+00  0.000E+00  0.000E+00  1.40960E+02  3.210E+00  5.653E+00  1.281E-03  4.219E-03  5.444E-04
   1    4    9     1     9    1.7812E+01  4.7510E-03   1.7807E+01  0.000E+00  0.000E+00  0.000E+00  1.40659E+02  3.209E+00  5.652E+00  1.281E-03  4.218E-03  5.438E-04
   1    4   10     1    10    1.7807E+01  4.7499E-03   1.7802E+01  0.000E+00  0.000E+00  0.000E+00  1.40359E+02  3.209E+00  5.652E+00  1.281E-03  4.218E-03  5.433E-04
   1    4   11     1    11    1.7802E+01  4.7489E-03   1.7798E+01  0.000E+00  0.000E+00  0.000E+00  1.40058E+02  3.208E+00  5.651E+00  1.281E-03  4.217E-03  5.428E-04
   1    4   12     1    12    1.7798E+01  4.7478E-03   1.7793E+01  0.000E+00  0.000E+00  0.000E+00  1.39758E+02  3.208E+00  5.651E+00  1.280E-03  4.217E-03  5.422E-04
   1    4   13     1    13    1.7793E+01  4.7468E-03   1.7788E+01  0.000E+00  0.000E+00  0.000E+00  1.39457E+02  3.207E+00  5.650E+00  1.280E-03  4.216E-03  5.416E-04
   1    4   14     1    14    1.7788E+01  4.7457E-03   1.7783E+01  0.000E+00  0.000E+00  0.000E+00  1.39157E+02  3.207E+00  5.650E+00  1.280E-03  4.216E-03  5.411E-04
   1    4   15     1    15    1.7783E+01  4.7447E-03   1.7779E+01  0.000E+00  0.000E+00  0.000E+00  1.38857E+02  3.207E+00  5.649E+00  1.280E-03  4.215E-03  5.405E-04
   1    4   16     1    16    1.7779E+01  4.7436E-03   1.7774E+01  0.000E+00  0.000E+00  0.000E+00  1.38556E+02  3.206E+00  5.648E+00  1.280E-03  4.215E-03  5.399E-04
   1    4   17     1    17    1.7774E+01  4.7426E-03   1.7769E+01  0.000E+00  0.000E+00  0.000E+00  1.38256E+02  3.206E+00  5.648E+00  1.280E-03  4.214E-03  5.394E-04
   1    4   18     1    18    1.7769E+01  4.7415E-03   1.7764E+01  0.000E+00  0.000E+00  0.000E+00  1.37955E+02  3.205E+00  5.647E+00  1.280E-03  4.214E-03  5.388E-04
   1    4   19     1    19    1.7764E+01  4.7405E-03   1.7760E+01  0.000E+00  0.000E+00  0.000E+00  1.37655E+02  3.205E+00  5.647E+00  1.280E-03  4.213E-03  5.382E-04
   1    4   20     1    20    1.7760E+01  4.7395E-03   1.7755E+01  0.000E+00  0.000E+00  0.000E+00  1.37355E+02  3.205E+00  5.646E+00  1.279E-03  4.213E-03  5.377E-04
   1    4   21     1    21    1.7755E+01  4.7384E-03   1.7750E+01  0.000E+00  0.000E+00  0.000E+00  1.37054E+02  3.204E+00  5.646E+00  1.279E-03  4.213E-03  5.371E-04
   1    4   22     1    22    1.7750E+01  4.7374E-03   1.7746E+01  0.000E+00  0.000E+00  0.000E+00  1.36754E+02  3.204E+00  5.645E+00  1.279E-03  4.212E-03  5.365E-04
   1    4   23     1    23    1.7746E+01  4.7363E-03   1.7741E+01  0.000E+00  0.000E+00  0.000E+00  1.36453E+02  3.203E+00  5.645E+00  1.279E-03  4.212E-03  5.359E-04
   1    4   24     1    24    1.7741E+01  4.7353E-03   1.7736E+01  0.000E+00  0.000E+00  0.000E+00  1.36153E+02  3.203E+00  5.644E+00  1.279E-03  4.211E-03  5.353E-04
   1    4   25     1    25    1.7736E+01  4.7342E-03   1.7731E+01  0.000E+00  0.000E+00  0.000E+00  1.35852E+02  3.202E+00  5.644E+00  1.279E-03  4.211E-03  5.347E-04
   1    4   26     1    26    1.7731E+01  4.7332E-03   1.7727E+01  0.000E+00  0.000E+00  0.000E+00  1.35552E+02  3.202E+00  5.643E+00  1.279E-03  4.210E-03  5.342E-04
   1    4   27     1    27    1.7727E+01  4.7321E-03   1.7722E+01  0.000E+00  0.000E+00  0.000E+00  1.35252E+02  3.202E+00  5.643E+00  1.278E-03  4.210E-03  5.336E-04
   1    4   28     1    28    1.7722E+01  4.7311E-03   1.7717E+01  0.000E+00  0.000E+00  0.000E+00  1.34951E+02  3.201E+00  5.642E+00  1.278E-03  4.209E-03  5.330E-04
   1    4   29     1    29    1.7717E+01  4.7301E-03   1.7712E+01  0.000E+00  0.000E+00  0.000E+00  1.34651E+02  3.201E+00  5.642E+00  1.278E-03  4.209E-03  5.324E-04
   1    4   30     1    30    1.7712E+01  4.7290E-03   1.7708E+01  0.000E+00  0.000E+00  0.000E+00  1.34350E+02  3.200E+00  5.641E+00  1.278E-03  4.208E-03  5.319E-04
   1    4   31     1    31    1.7708E+01  4.7280E-03   1.7703E+01  0.000E+00  0.000E+00  0.000E+00  1.34050E+02  3.200E+00  5.641E+00  1.278E-03  4.208E-03  5.313E-04
   1    4   32     1    32    1.7703E+01  4.7269E-03   1.7698E+01  0.000E+00  0.000E+00  0.000E+00  1.33749E+02  3.199E+00  5.640E+00  1.278E-03  4.207E-03  5.307E-04
   1    4   33     1    33    1.7698E+01  4.7259E-03   1.7693E+01  0.000E+00  0.000E+00  0.000E+00  1.33449E+02  3.199E+00  5.640E+00  1.278E-03  4.207E-03  5.301E-04
   1    4   34     1    34    1.7693E+01  4.7248E-03   1.7689E+01  0.000E+00  0.000E+00  0.000E+00  1.33149E+02  3.199E+00  5.639E+00  1.277E-03  4.207E-03  5.296E-04
   1    4   35     1    35    1.7689E+01  4.7238E-03   1.7684E+01  0.000E+00  0.000E+00  0.000E+00  1.32848E+02  3.198E+00  5.639E+00  1.277E-03  4.206E-03  5.290E-04
   1    4   36     1    36    1.7684E+01  4.7228E-03   1.7679E+01  0.000E+00  0.000E+00  0.000E+00  1.32548E+02  3.198E+00  5.638E+00  1.277E-03  4.206E-03  5.285E-04
   1    4   37     1    37    1.7679E+01  4.7217E-03   1.7675E+01  0.000E+00  0.000E+00  0.000E+00  1.32247E+02  3.197E+00  5.638E+00  1.277E-03  4.205E-03  5.279E-04
   1    4   38     1    38    1.7675E+01  4.7207E-03   1.7670E+01  0.000E+00  0.000E+00  0.000E+00  1.31947E+02  3.197E+00  5.637E+00  1.277E-03  4.205E-03  5.274E-04
   1    4   39     1    39    1.7670E+01  4.7196E-03   1.7665E+01  0.000E+00  0.000E+00  0.000E+00  1.31647E+02  3.197E+00  5.637E+00  1.277E-03  4.204E-03  5.269E-04
   1    4   40     1    40    1.7665E+01  4.7186E-03   1.7660E+01  0.000E+00  0.000E+00  0.000E+00  1.31346E+02  3.196E+00  5.636E+00  1.277E-03  4.203E-03  5.264E-04
   1    4   41     1    41    1.7660E+01  4.7176E-03   1.7656E+01  0.000E+00  0.000E+00  0.000E+00  1.31046E+02  3.196E+00  5.636E+00  1.276E-03  4.203E-03  5.259E-04
   1    4   42     1    42    1.7656E+01  4.7165E-03   1.7651E+01  0.000E+00  0.000E+00  0.000E+00  1.30745E+02  3.195E+00  5.635E+00  1.276E-03  4.202E-03  5.255E-04
   1    4   43     1    43    1.7651E+01  4.7155E-03   1.7646E+01  0.000E+00  0.000E+00  0.000E+00  1.30445E+02  3.195E+00  5.635E+00  1.276E-03  4.202E-03  5.251E-04
   1    4   44     1    44    1.7646E+01  4.7144E-03   1.7642E+01  0.000E+00  0.000E+00  0.000E+00  1.30144E+02  3.194E+00  5.634E+00  1.276E-03  4.201E-03  5.247E-04
   1    4   45     1    45    1.7642E+01  4.7134E-03   1.7637E+01  0.000E+00  0.000E+00  0.000E+00  1.29844E+02  3.194E+00  5.634E+00  1.276E-03  4.200E-03  5.243E-04
   1    4   46     1    46    1.7637E+01  4.7124E-03   1.7632E+01  0.000E+00  0.000E+00  0.000E+00  1.29544E+02  3.194E+00  5.633E+00  1.276E-03  4.200E-03  5.240E-04
   1    4   47     1    47    1.7632E+01  4.7113E-03   1.7627E+01  0.000E+00  0.000E+00  0.000E+00  1.29243E+02  3.193E+00  5.633E+00  1.276E-03  4.199E-03  5.238E-04
   1    4   48     1    48    1.7627E+01  4.7103E-03   1.7623E+01  0.000E+00  0.000E+00  0.000E+00  1.28943E+02  3.193E+00  5.632E+00  1.276E-03  4.198E-03  5.236E-04
   1    4   49     1    49    1.7623E+01  4.7092E-03   1.7618E+01  0.000E+00  0.000E+00  0.000E+00  1.28642E+02  3.192E+00  5.632E+00  1.275E-03  4.197E-03  5.235E-04
   1    4   50     1    50    1.7618E+01  4.7082E-03   1.7613E+01  0.000E+00  0.000E+00  0.000E+00  1.28342E+02  3.192E+00  5.631E+00  1.275E-03  4.196E-03  5.234E-04
   1    4   51     1    51    1.7613E+01  4.7072E-03   1.7609E+01  0.000E+00  0.000E+00  0.000E+00  1.28042E+02  3.192E+00  5.631E+00  1.275E-03  4.195E-03  5.235E-04
   1    4   52     1    52    1.7609E+01  4.7061E-03   1.7604E+01  0.000E+00  0.000E+00  0.000E+00  1.27741E+02  3.191E+00  5.630E+00  1.275E-03  4.194E-03  5.237E-04
   1    4   53     1    53    1.7604E+01  4.7051E-03   1.7599E+01  0.000E+00  0.000E+00  0.000E+00  1.27441E+02  3.191E+00  5.630E+00  1.275E-03  4.192E-03  5.240E-04
   1    4   54     1    54    1.7599E+01  4.7040E-03   1.7594E+01  0.000E+00  0.000E+00  0.000E+00  1.27140E+02  3.190E+00  5.629E+00  1.275E-03  4.191E-03  5.245E-04
   1    4   55     1    55    1.7594E+01  4.7030E-03   1.7590E+01  0.000E+00  0.000E+00  0.000E+00  1.26840E+02  3.190E+00  5.629E+00  1.275E-03  4.189E-03  5.251E-04
   1    4   56     1    56    1.7590E+01  4.7020E-03   1.7585E+01  0.000E+00  0.000E+00  0.000E+00  1.26539E+02  3.189E+00  5.628E+00  1.274E-03  4.187E-03  5.259E-04
   1    4   57     1    57    1.7585E+01  4.7009E-03   1.7580E+01  0.000E+00  0.000E+00  0.000E+00  1.26239E+02  3.189E+00  5.628E+00  1.274E-03  4.185E-03  5.269E-04
   1    4   58     1    58    1.7580E+01  4.6999E-03   1.7576E+01  0.000E+00  0.000E+00  0.000E+00  1.25939E+02  3.189E+00  5.627E+00  1.274E-03  4.183E-03  5.282E-04
   1    4   59     1    59    1.7576E+01  4.6989E-03   1.7571E+01  0.000E+00  0.000E+00  0.000E+00  1.25638E+02  3.188E+00  5.627E+00  1.274E-03  4.181E-03  5.296E-04
   1    4   60     1    60    1.7571E+01  4.6978E-03   1.7566E+01  0.000E+00  0.000E+00  0.000E+00  1.25338E+02  3.188E+00  5.626E+00  1.274E-03  4.178E-03  5.314E-04
   1    4   61     1    61    1.7566E+01  4.6968E-03   1.7562E+01  0.000E+00  0.000E+00  0.000E+00  1.25037E+02  3.187E+00  5.626E+00  1.274E-03  4.175E-03  5.334E-04
   1    4   62     1    62    1.7562E+01  4.6957E-03   1.7557E+01  0.000E+00  0.000E+00  0.000E+00  1.24737E+02  3.187E+00  5.625E+00  1.274E-03  4.171E-03  5.357E-04
   1    4   63     1    63    1.7557E+01  4.6947E-03   1.7552E+01  0.000E+00  0.000E+00  0.000E+00  1.24436E+02  3.186E+00  5.625E+00  1.273E-03  4.168E-03  5.383E-04
   1    4   64     1    64    1.7552E+01  4.6937E-03   1.7548E+01  0.000E+00  0.000E+00  0.000E+00  1.24136E+02  3.186E+00  5.624E+00  1.273E-03  4.164E-03  5.413E-04
   1    4   65     1    65    1.7548E+01  4.6926E-03   1.7543E+01  0.000E+00  0.000E+00  0.000E+00  1.23836E+02  3.186E+00  5.624E+00  1.273E-03  4.159E-03  5.445E-04
   1    4   66     1    66    1.7543E+01  4.6916E-03   1.7538E+01  0.000E+00  0.000E+00  0.000E+00  1.23535E+02  3.185E+00  5.623E+00  1.273E-03  4.155E-03  5.481E-04
   1    4   67     1    67    1.7538E+01  4.6906E-03   1.7533E+01  0.000E+00  0.000E+00  0.000E+00  1.23235E+02  3.185E+00  5.623E+00  1.273E-03  4.150E-03  5.520E-04
   1    4   68     1    68    1.7533E+01  4.6895E-03   1.7529E+01  0.000E+00  0.000E+00  0.000E+00  1.22934E+02  3.184E+00  5.622E+00  1.273E-03  4.179E-03  5.221E-04
   1    4   69     1    69    1.7529E+01  4.6885E-03   1.7524E+01  0.000E+00  0.000E+00  0.000E+00  1.22634E+02  3.184E+00  5.622E+00  1.273E-03  4.228E-03  4.722E-04
   1    4   70     1    70    1.7524E+01  4.6875E-03   1.7519E+01  0.000E+00  0.000E+00  0.000E+00  1.22334E+02  3.184E+00  5.621E+00  1.273E-03  4.268E-03  4.303E-04
   1    4   71     1    71    1.7519E+01  4.6864E-03   1.7515E+01  0.000E+00  0.000E+00  0.000E+00  1.22033E+02  3.183E+00  5.621E+00  1.272E-03  4.300E-03  3.973E-04
   1    4   72     1    72    1.7515E+01  4.6854E-03   1.7510E+01  0.000E+00  0.000E+00  0.000E+00  1.21733E+02  3.183E+00  5.620E+00  1.272E-03  4.323E-03  3.741E-04
   1    4   73     1    73    1.7510E+01  4.6843E-03   1.7505E+01  0.000E+00  0.000E+00  0.000E+00  1.21432E+02  3.182E+00  5.620E+00  1.272E-03  4.334E-03  3.616E-04
   1    4   74     1    74    1.7505E+01  4.6833E-03   1.7501E+01  0.000E+00  0.000E+00  0.000E+00  1.21132E+02  3.182E+00  5.619E+00  1.272E-03  4.334E-03  3.608E-04
   1    4   75     1    75    1.7501E+01  4.6823E-03   1.7496E+01  0.000E+00  0.000E+00  0.000E+00  1.20831E+02  3.181E+00  5.619E+00  1.272E-03  4.321E-03  3.728E-04
   1    4   76     1    76    1.7496E+01  4.6812E-03   1.7491E+01  0.000E+00  0.000E+00  0.000E+00  1.20531E+02  3.181E+00  5.618E+00  1.272E-03  4.294E-03  3.985E-04
   1    4   77     1    77    1.7491E+01  4.6802E-03   1.7487E+01  0.000E+00  0.000E+00  0.000E+00  1.20231E+02  3.181E+00  5.618E+00  1.272E-03  4.253E-03  4.390E-04
   1    4   78     1    78    1.7487E+01  4.6792E-03   1.7482E+01  0.000E+00  0.000E+00  0.000E+00  1.19930E+02  3.180E+00  5.617E+00  1.271E-03  4.195E-03  4.955E-04
   1    4   79     1    79    1.7482E+01  4.6781E-03   1.7477E+01  0.000E+00  0.000E+00  0.000E+00  1.19630E+02  3.180E+00  5.617E+00  1.271E-03  4.121E-03  5.688E-04
   1    4   80     1    80    1.7477E+01  4.6771E-03   1.7473E+01  0.000E+00  0.000E+00  0.000E+00  1.19329E+02  3.179E+00  5.616E+00  1.271E-03  4.062E-03  6.263E-04
   1    4   81     1    81    1.7473E+01  4.6761E-03   1.7468E+01  0.000E+00  0.000E+00  0.000E+00  1.19029E+02  3.179E+00  5.616E+00  1.271E-03  4.056E-03  6.318E-04
   1    4   82     1    82    1.7468E+01  4.6750E-03   1.7463E+01  0.000E+00  0.000E+00  0.000E+00  1.18729E+02  3.179E+00  5.615E+00  1.271E-03  4.050E-03  6.368E-04
   1    4   83     1    83    1.7463E+01  4.6740E-03   1.7459E+01  0.000E+00  0.000E+00  0.000E+00  1.18428E+02  3.178E+00  5.615E+00  1.271E-03  4.044E-03  6.410E-04
   1    4   84     1    84    1.7459E+01  4.6730E-03   1.7454E+01  0.000E+00  0.000E+00  0.000E+00  1.18128E+02  3.178E+00  5.614E+00  1.271E-03  4.040E-03  6.444E-04
   1    4   85     1    85    1.7454E+01  4.6719E-03   1.7449E+01  0.000E+00  0.000E+00  0.000E+00  1.17827E+02  3.177E+00  5.614E+00  1.270E-03  4.036E-03  6.469E-04
   1    4   86     1    86    1.7449E+01  4.6709E-03   1.7445E+01  0.000E+00  0.000E+00  0.000E+00  1.17527E+02  3.177E+00  5.613E+00  1.270E-03  4.034E-03  6.484E-04
   1    4   87     1    87    1.7445E+01  4.6699E-03   1.7440E+01  0.000E+00  0.000E+00  0.000E+00  1.17226E+02  3.176E+00  5.613E+00  1.270E-03  4.033E-03  6.488E-04
   1    4   88     1    88    1.7440E+01  4.6688E-03   1.7435E+01  0.000E+00  0.000E+00  0.000E+00  1.16926E+02  3.176E+00  5.612E+00  1.270E-03  4.032E-03  6.479E-04
   1    4   89     1    89    1.7435E+01  4.6678E-03   1.7431E+01  0.000E+00  0.000E+00  0.000E+00  1.16626E+02  3.176E+00  5.612E+00  1.270E-03  4.034E-03  6.456E-04
   1    4   90     1    90    1.7431E+01  4.6668E-03   1.7426E+01  0.000E+00  0.000E+00  0.000E+00  1.16325E+02  3.175E+00  5.611E+00  1.270E-03  4.036E-03  6.420E-04
   1    4   91     1    91    1.7426E+01  4.6657E-03   1.7421E+01  0.000E+00  0.000E+00  0.000E+00  1.16025E+02  3.175E+00  5.611E+00  1.270E-03  4.040E-03  6.368E-04
   1    4   92     1    92    1.7421E+01  4.6647E-03   1.7417E+01  0.000E+00  0.000E+00  0.000E+00  1.15724E+02  3.174E+00  5.610E+00  1.270E-03  4.046E-03  6.302E-04
   1    4   93     1    93    1.7417E+01  4.6637E-03   1.7412E+01  0.000E+00  0.000E+00  0.000E+00  1.15424E+02  3.174E+00  5.610E+00  1.269E-03  4.053E-03  6.220E-04
   1    4   94     1    94    1.7412E+01  4.6627E-03   1.7407E+01  0.000E+00  0.000E+00  0.000E+00  1.15124E+02  3.174E+00  5.609E+00  1.269E-03  4.062E-03  6.124E-04
   1    4   95     1    95    1.7407E+01  4.6616E-03   1.7403E+01  0.000E+00  0.000E+00  0.000E+00  1.14823E+02  3.173E+00  5.609E+00  1.269E-03  4.072E-03  6.015E-04
   1    4   96     1    96    1.7403E+01  4.6606E-03   1.7398E+01  0.000E+00  0.000E+00  0.000E+00  1.14523E+02  3.173E+00  5.608E+00  1.269E-03  4.083E-03  5.893E-04
   1    4   97     1    97    1.7398E+01  4.6596E-03   1.7393E+01  0.000E+00  0.000E+00  0.000E+00  1.14222E+02  3.172E+00  5.608E+00  1.269E-03  4.095E-03  5.762E-04
   1    4   98     1    98    1.7393E+01  4.6585E-03   1.7389E+01  0.000E+00  0.000E+00  0.000E+00  1.13922E+02  3.172E+00  5.607E+00  1.269E-03  4.108E-03  5.624E-04
   1    4   99     1    99    1.7389E+01  4.6575E-03   1.7384E+01  0.000E+00  0.000E+00  0.000E+00  1.13621E+02  3.171E+00  5.607E+00  1.269E-03  4.121E-03  5.481E-04
   1    4  100     1   100    1.7384E+01  4.6565E-03   1.7379E+01  0.000E+00  0.000E+00  0.000E+00  1.13321E+02  3.171E+00  5.606E+00  1.268E-03  4.134E-03  5.337E-04



1
  VOLUMETRIC BUDGET FOR UNSATURATED ZONE BENEATH STREAMS AT END OF TIME STEP    30 STRESS PERIOD   4
  ------------------------------------------------------------------------------------------------

    CUMULATIVE VOLUMES             L**3    RATES FOR THIS TIME STEP         L**3/T
    ------------------                     ------------------------


          STREAM LOSS =      1935672.9934            STREAM LOSS =            0.4708
    CHANGE IN STORAGE =       716458.4274      CHANGE IN STORAGE =        5.3956E-02
       RECHARGE TO GW =      1222130.9794         RECHARGE TO GW =            0.4180

             TOTAL IN =      1935672.9934               TOTAL IN =            0.4708

            TOTAL OUT =      1938589.4068              TOTAL OUT =            0.4719

             IN - OUT =        -2916.4134               IN - OUT =       -1.1319E-03

  PERCENT DISCREPANCY =           -0.04      PERCENT DISCREPANCY =            -0.06






 
 SOLVING FOR HEAD 

 OUTPUT CONTROL FOR STRESS PERIOD     45   TIME STEP    30
    PRINT HEAD FOR ALL LAYERS
    PRINT BUDGET
    SAVE BUDGET

  HEAD DEP BOUNDS   PERIOD   45   STEP  30
 BOUNDARY      1   LAYER   1   ROW     1   COL   100   RATE   -0.299358E-01   COND     4.10000    
 BOUNDARY      2   LAYER   1   ROW     2   COL   100   RATE   -0.299583E-01   COND     4.10000    
 BOUNDARY      3   LAYER   1   ROW     3   COL   100   RATE   -0.297426E-01   COND     4.10000    
 BOUNDARY      4   LAYER   1   ROW     4   COL   100   RATE   -0.220878E-01   COND     4.10000    
 BOUNDARY      5   LAYER   1   ROW     5   COL   100   RATE   -0.297426E-01   COND     4.10000    
 BOUNDARY      6   LAYER   1   ROW     6   COL   100   RATE   -0.299583E-01   COND     4.10000    
 BOUNDARY      7   LAYER   1   ROW     7   COL   100   RATE   -0.299358E-01   COND     4.10000    



 STREAM LISTING     PERIOD     45   STEP       30

 LAYER ROW COL. STREAM  RCH.   FLOW INTO    STREAM     FLOW OUT OF   OVRLND.    DIRECT     STREAM      STREAM      STREAM     STREAM  STREAMBED   FLOW TO   CHNG. UNSAT. 
                SEG.NO.  NO.   STRM. RCH.    LOSS       STRM. RCH.   RUNOFF     PRECIP       ET         HEAD        DEPTH      WIDTH  CONDCTNC.   WAT. TAB.

   1    4    1     1     1    3.4300E+00  1.2954E-03   3.4287E+00  0.000E+00  0.000E+00  0.000E+00  1.41237E+02  1.387E+00  3.472E+00  6.864E-04  1.386E-03 -9.015E-05
   1    4    2     1     2    3.4287E+00  1.2951E-03   3.4274E+00  0.000E+00  0.000E+00  0.000E+00  1.40937E+02  1.387E+00  3.472E+00  6.863E-04  1.385E-03 -8.984E-05
   1    4    3     1     3    3.4274E+00  1.2947E-03   3.4261E+00  0.000E+00  0.000E+00  0.000E+00  1.40637E+02  1.387E+00  3.472E+00  6.862E-04  1.385E-03 -8.953E-05
   1    4    4     1     4    3.4261E+00  1.2944E-03   3.4248E+00  0.000E+00  0.000E+00  0.000E+00  1.40337E+02  1.387E+00  3.471E+00  6.861E-04  1.384E-03 -8.922E-05
   1    4    5     1     5    3.4248E+00  1.2940E-03   3.4235E+00  0.000E+00  0.000E+00  0.000E+00  1.40036E+02  1.386E+00  3.471E+00  6.860E-04  1.383E-03 -8.889E-05
   1    4    6     1     6    3.4235E+00  1.2937E-03   3.4222E+00  0.000E+00  0.000E+00  0.000E+00  1.39736E+02  1.386E+00  3.471E+00  6.859E-04  1.382E-03 -8.856E-05
   1    4    7     1     7    3.4222E+00  1.2933E-03   3.4209E+00  0.000E+00  0.000E+00  0.000E+00  1.39436E+02  1.386E+00  3.470E+00  6.858E-04  1.382E-03 -8.822E-05
   1    4    8     1     8    3.4209E+00  1.2930E-03   3.4196E+00  0.000E+00  0.000E+00  0.000E+00  1.39135E+02  1.385E+00  3.470E+00  6.857E-04  1.381E-03 -8.788E-05
   1    4    9     1     9    3.4196E+00  1.2926E-03   3.4184E+00  0.000E+00  0.000E+00  0.000E+00  1.38835E+02  1.385E+00  3.470E+00  6.857E-04  1.380E-03 -8.752E-05
   1    4   10     1    10    3.4184E+00  1.2923E-03   3.4171E+00  0.000E+00  0.000E+00  0.000E+00  1.38535E+02  1.385E+00  3.469E+00  6.856E-04  1.380E-03 -8.716E-05
   1    4   11     1    11    3.4171E+00  1.2919E-03   3.4158E+00  0.000E+00  0.000E+00  0.000E+00  1.38235E+02  1.385E+00  3.469E+00  6.855E-04  1.379E-03 -8.679E-05
   1    4   12     1    12    3.4158E+00  1.2915E-03   3.4145E+00  0.000E+00  0.000E+00  0.000E+00  1.37934E+02  1.384E+00  3.469E+00  6.854E-04  1.378E-03 -8.641E-05
   1    4   13     1    13    3.4145E+00  1.2912E-03   3.4132E+00  0.000E+00  0.000E+00  0.000E+00  1.37634E+02  1.384E+00  3.469E+00  6.853E-04  1.377E-03 -8.603E-05
   1    4   14     1    14    3.4132E+00  1.2908E-03   3.4119E+00  0.000E+00  0.000E+00  0.000E+00  1.37334E+02  1.384E+00  3.468E+00  6.852E-04  1.377E-03 -8.563E-05
   1    4   15     1    15    3.4119E+00  1.2905E-03   3.4106E+00  0.000E+00  0.000E+00  0.000E+00  1.37034E+02  1.384E+00  3.468E+00  6.851E-04  1.376E-03 -8.523E-05
   1    4   16     1    16    3.4106E+00  1.2901E-03   3.4093E+00  0.000E+00  0.000E+00  0.000E+00  1.36733E+02  1.383E+00  3.468E+00  6.850E-04  1.375E-03 -8.482E-05
   1    4   17     1    17    3.4093E+00  1.2898E-03   3.4080E+00  0.000E+00  0.000E+00  0.000E+00  1.36433E+02  1.383E+00  3.467E+00  6.849E-04  1.374E-03 -8.443E-05
   1    4   18     1    18    3.4080E+00  1.2894E-03   3.4067E+00  0.000E+00  0.000E+00  0.000E+00  1.36133E+02  1.383E+00  3.467E+00  6.849E-04  1.374E-03 -8.402E-05
   1    4   19     1    19    3.4067E+00  1.2891E-03   3.4054E+00  0.000E+00  0.000E+00  0.000E+00  1.35832E+02  1.382E+00  3.467E+00  6.848E-04  1.373E-03 -8.360E-05
   1    4   20     1    20    3.4054E+00  1.2887E-03   3.4042E+00  0.000E+00  0.000E+00  0.000E+00  1.35532E+02  1.382E+00  3.466E+00  6.847E-04  1.372E-03 -8.318E-05
   1    4   21     1    21    3.4042E+00  1.2884E-03   3.4029E+00  0.000E+00  0.000E+00  0.000E+00  1.35232E+02  1.382E+00  3.466E+00  6.846E-04  1.371E-03 -8.275E-05
   1    4   22     1    22    3.4029E+00  1.2880E-03   3.4016E+00  0.000E+00  0.000E+00  0.000E+00  1.34932E+02  1.382E+00  3.466E+00  6.845E-04  1.370E-03 -8.232E-05
   1    4   23     1    23    3.4016E+00  1.2877E-03   3.4003E+00  0.000E+00  0.000E+00  0.000E+00  1.34631E+02  1.381E+00  3.465E+00  6.844E-04  1.369E-03 -8.147E-05
   1    4   24     1    24    3.4003E+00  1.2873E-03   3.3990E+00  0.000E+00  0.000E+00  0.000E+00  1.34331E+02  1.381E+00  3.465E+00  6.843E-04  1.368E-03 -8.055E-05
   1    4   25     1    25    3.3990E+00  1.2870E-03   3.3977E+00  0.000E+00  0.000E+00  0.000E+00  1.34031E+02  1.381E+00  3.465E+00  6.842E-04  1.367E-03 -7.966E-05
   1    4   26     1    26    3.3977E+00  1.2866E-03   3.3964E+00  0.000E+00  0.000E+00  0.000E+00  1.33731E+02  1.381E+00  3.464E+00  6.841E-04  1.365E-03 -7.879E-05
   1    4   27     1    27    3.3964E+00  1.2863E-03   3.3951E+00  0.000E+00  0.000E+00  0.000E+00  1.33430E+02  1.380E+00  3.464E+00  6.841E-04  1.364E-03 -7.795E-05
   1    4   28     1    28    3.3951E+00  1.2859E-03   3.3939E+00  0.000E+00  0.000E+00  0.000E+00  1.33130E+02  1.380E+00  3.464E+00  6.840E-04  1.363E-03 -7.714E-05
   1    4   29     1    29    3.3939E+00  1.2855E-03   3.3926E+00  0.000E+00  0.000E+00  0.000E+00  1.32830E+02  1.380E+00  3.463E+00  6.839E-04  1.362E-03 -7.635E-05
   1    4   30     1    30    3.3926E+00  1.2852E-03   3.3913E+00  0.000E+00  0.000E+00  0.000E+00  1.32530E+02  1.380E+00  3.463E+00  6.838E-04  1.361E-03 -7.559E-05
   1    4   31     1    31    3.3913E+00  1.2848E-03   3.3900E+00  0.000E+00  0.000E+00  0.000E+00  1.32229E+02  1.379E+00  3.463E+00  6.837E-04  1.360E-03 -7.485E-05
   1    4   32     1    32    3.3900E+00  1.2845E-03   3.3887E+00  0.000E+00  0.000E+00  0.000E+00  1.31929E+02  1.379E+00  3.462E+00  6.836E-04  1.359E-03 -7.415E-05
   1    4   33     1    33    3.3887E+00  1.2841E-03   3.3874E+00  0.000E+00  0.000E+00  0.000E+00  1.31629E+02  1.379E+00  3.462E+00  6.835E-04  1.358E-03 -7.347E-05
   1    4   34     1    34    3.3874E+00  1.2838E-03   3.3862E+00  0.000E+00  0.000E+00  0.000E+00  1.31328E+02  1.378E+00  3.462E+00  6.834E-04  1.357E-03 -7.283E-05
   1    4   35     1    35    3.3862E+00  1.2834E-03   3.3849E+00  0.000E+00  0.000E+00  0.000E+00  1.31028E+02  1.378E+00  3.461E+00  6.834E-04  1.356E-03 -7.222E-05
   1    4   36     1    36    3.3849E+00  1.2831E-03   3.3836E+00  0.000E+00  0.000E+00  0.000E+00  1.30728E+02  1.378E+00  3.461E+00  6.833E-04  1.355E-03 -7.164E-05
   1    4   37     1    37    3.3836E+00  1.2827E-03   3.3823E+00  0.000E+00  0.000E+00  0.000E+00  1.30428E+02  1.378E+00  3.461E+00  6.832E-04  1.354E-03 -7.109E-05
   1    4   38     1    38    3.3823E+00  1.2824E-03   3.3810E+00  0.000E+00  0.000E+00  0.000E+00  1.30127E+02  1.377E+00  3.460E+00  6.831E-04  1.353E-03 -7.057E-05
   1    4   39     1    39    3.3810E+00  1.2820E-03   3.3797E+00  0.000E+00  0.000E+00  0.000E+00  1.29827E+02  1.377E+00  3.460E+00  6.830E-04  1.352E-03 -7.009E-05
   1    4   40     1    40    3.3797E+00  1.2817E-03   3.3785E+00  0.000E+00  0.000E+00  0.000E+00  1.29527E+02  1.377E+00  3.460E+00  6.829E-04  1.351E-03 -6.965E-05
   1    4   41     1    41    3.3785E+00  1.2813E-03   3.3772E+00  0.000E+00  0.000E+00  0.000E+00  1.29227E+02  1.377E+00  3.459E+00  6.828E-04  1.351E-03 -6.924E-05
   1    4   42     1    42    3.3772E+00  1.2810E-03   3.3759E+00  0.000E+00  0.000E+00  0.000E+00  1.28926E+02  1.376E+00  3.459E+00  6.827E-04  1.350E-03 -6.888E-05
   1    4   43     1    43    3.3759E+00  1.2806E-03   3.3746E+00  0.000E+00  0.000E+00  0.000E+00  1.28626E+02  1.376E+00  3.459E+00  6.826E-04  1.349E-03 -6.854E-05
   1    4   44     1    44    3.3746E+00  1.2803E-03   3.3733E+00  0.000E+00  0.000E+00  0.000E+00  1.28326E+02  1.376E+00  3.458E+00  6.826E-04  1.349E-03 -6.825E-05
   1    4   45     1    45    3.3733E+00  1.2799E-03   3.3721E+00  0.000E+00  0.000E+00  0.000E+00  1.28025E+02  1.375E+00  3.458E+00  6.825E-04  1.348E-03 -6.799E-05
   1    4   46     1    46    3.3721E+00  1.2796E-03   3.3708E+00  0.000E+00  0.000E+00  0.000E+00  1.27725E+02  1.375E+00  3.458E+00  6.824E-04  1.347E-03 -6.778E-05
   1    4   47     1    47    3.3708E+00  1.2792E-03   3.3695E+00  0.000E+00  0.000E+00  0.000E+00  1.27425E+02  1.375E+00  3.457E+00  6.823E-04  1.347E-03 -6.760E-05
   1    4   48     1    48    3.3695E+00  1.2789E-03   3.3682E+00  0.000E+00  0.000E+00  0.000E+00  1.27125E+02  1.375E+00  3.457E+00  6.822E-04  1.346E-03 -6.747E-05
   1    4   49     1    49    3.3682E+00  1.2785E-03   3.3669E+00  0.000E+00  0.000E+00  0.000E+00  1.26824E+02  1.374E+00  3.457E+00  6.821E-04  1.346E-03 -6.738E-05
   1    4   50     1    50    3.3669E+00  1.2782E-03   3.3657E+00  0.000E+00  0.000E+00  0.000E+00  1.26524E+02  1.374E+00  3.456E+00  6.820E-04  1.346E-03 -6.734E-05
   1    4   51     1    51    3.3657E+00  1.2778E-03   3.3644E+00  0.000E+00  0.000E+00  0.000E+00  1.26224E+02  1.374E+00  3.456E+00  6.819E-04  1.345E-03 -6.733E-05
   1    4   52     1    52    3.3644E+00  1.2775E-03   3.3631E+00  0.000E+00  0.000E+00  0.000E+00  1.25924E+02  1.374E+00  3.456E+00  6.818E-04  1.345E-03 -6.738E-05
   1    4   53     1    53    3.3631E+00  1.2771E-03   3.3618E+00  0.000E+00  0.000E+00  0.000E+00  1.25623E+02  1.373E+00  3.456E+00  6.818E-04  1.345E-03 -6.746E-05
   1    4   54     1    54    3.3618E+00  1.2768E-03   3.3606E+00  0.000E+00  0.000E+00  0.000E+00  1.25323E+02  1.373E+00  3.455E+00  6.817E-04  1.344E-03 -6.739E-05
   1    4   55     1    55    3.3606E+00  1.2764E-03   3.3593E+00  0.000E+00  0.000E+00  0.000E+00  1.25023E+02  1.373E+00  3.455E+00  6.816E-04  1.344E-03 -6.697E-05
   1    4   56     1    56    3.3593E+00  1.2761E-03   3.3580E+00  0.000E+00  0.000E+00  0.000E+00  1.24722E+02  1.372E+00  3.455E+00  6.815E-04  1.343E-03 -6.655E-05
   1    4   57     1    57    3.3580E+00  1.2757E-03   3.3567E+00  0.000E+00  0.000E+00  0.000E+00  1.24422E+02  1.372E+00  3.454E+00  6.814E-04  1.342E-03 -6.614E-05
   1    4   58     1    58    3.3567E+00  1.2754E-03   3.3554E+00  0.000E+00  0.000E+00  0.000E+00  1.24122E+02  1.372E+00  3.454E+00  6.813E-04  1.341E-03 -6.574E-05
   1    4   59     1    59    3.3554E+00  1.2750E-03   3.3542E+00  0.000E+00  0.000E+00  0.000E+00  1.23822E+02  1.372E+00  3.454E+00  6.812E-04  1.341E-03 -6.536E-05
   1    4   60     1    60    3.3542E+00  1.2747E-03   3.3529E+00  0.000E+00  0.000E+00  0.000E+00  1.23521E+02  1.371E+00  3.453E+00  6.811E-04  1.340E-03 -6.500E-05
   1    4   61     1    61    3.3529E+00  1.2743E-03   3.3516E+00  0.000E+00  0.000E+00  0.000E+00  1.23221E+02  1.371E+00  3.453E+00  6.811E-04  1.339E-03 -6.464E-05
   1    4   62     1    62    3.3516E+00  1.2740E-03   3.3503E+00  0.000E+00  0.000E+00  0.000E+00  1.22921E+02  1.371E+00  3.453E+00  6.810E-04  1.338E-03 -6.429E-05
   1    4   63     1    63    3.3503E+00  1.2736E-03   3.3491E+00  0.000E+00  0.000E+00  0.000E+00  1.22621E+02  1.371E+00  3.452E+00  6.809E-04  1.338E-03 -6.395E-05
   1    4   64     1    64    3.3491E+00  1.2733E-03   3.3478E+00  0.000E+00  0.000E+00  0.000E+00  1.22320E+02  1.370E+00  3.452E+00  6.808E-04  1.337E-03 -6.362E-05
   1    4   65     1    65    3.3478E+00  1.2729E-03   3.3465E+00  0.000E+00  0.000E+00  0.000E+00  1.22020E+02  1.370E+00  3.452E+00  6.807E-04  1.336E-03 -6.330E-05
   1    4   66     1    66    3.3465E+00  1.2726E-03   3.3453E+00  0.000E+00  0.000E+00  0.000E+00  1.21720E+02  1.370E+00  3.451E+00  6.806E-04  1.336E-03 -6.298E-05
   1    4   67     1    67    3.3453E+00  1.2722E-03   3.3440E+00  0.000E+00  0.000E+00  0.000E+00  1.21419E+02  1.369E+00  3.451E+00  6.805E-04  1.335E-03 -6.266E-05
   1    4   68     1    68    3.3440E+00  1.2719E-03   3.3427E+00  0.000E+00  0.000E+00  0.000E+00  1.21119E+02  1.369E+00  3.451E+00  6.804E-04  1.334E-03 -6.235E-05
   1    4   69     1    69    3.3427E+00  1.2715E-03   3.3414E+00  0.000E+00  0.000E+00  0.000E+00  1.20819E+02  1.369E+00  3.450E+00  6.803E-04  1.334E-03 -6.205E-05
   1    4   70     1    70    3.3414E+00  1.2712E-03   3.3402E+00  0.000E+00  0.000E+00  0.000E+00  1.20519E+02  1.369E+00  3.450E+00  6.803E-04  1.333E-03 -6.174E-05
   1    4   71     1    71    3.3402E+00  1.2708E-03   3.3389E+00  0.000E+00  0.000E+00  0.000E+00  1.20218E+02  1.368E+00  3.450E+00  6.802E-04  1.332E-03 -6.144E-05
   1    4   72     1    72    3.3389E+00  1.2705E-03   3.3376E+00  0.000E+00  0.000E+00  0.000E+00  1.19918E+02  1.368E+00  3.449E+00  6.801E-04  1.332E-03 -6.114E-05
   1    4   73     1    73    3.3376E+00  1.2701E-03   3.3364E+00  0.000E+00  0.000E+00  0.000E+00  1.19618E+02  1.368E+00  3.449E+00  6.800E-04  1.331E-03 -6.085E-05
   1    4   74     1    74    3.3364E+00  1.2698E-03   3.3351E+00  0.000E+00  0.000E+00  0.000E+00  1.19318E+02  1.368E+00  3.449E+00  6.799E-04  1.331E-03 -6.054E-05
   1    4   75     1    75    3.3351E+00  1.2694E-03   3.3338E+00  0.000E+00  0.000E+00  0.000E+00  1.19017E+02  1.367E+00  3.448E+00  6.798E-04  1.330E-03 -6.024E-05
   1    4   76     1    76    3.3338E+00  1.2691E-03   3.3326E+00  0.000E+00  0.000E+00  0.000E+00  1.18717E+02  1.367E+00  3.448E+00  6.797E-04  1.329E-03 -5.993E-05
   1    4   77     1    77    3.3326E+00  1.2687E-03   3.3313E+00  0.000E+00  0.000E+00  0.000E+00  1.18417E+02  1.367E+00  3.448E+00  6.796E-04  1.329E-03 -5.962E-05
   1    4   78     1    78    3.3313E+00  1.2684E-03   3.3300E+00  0.000E+00  0.000E+00  0.000E+00  1.18117E+02  1.367E+00  3.447E+00  6.796E-04  1.328E-03 -5.931E-05
   1    4   79     1    79    3.3300E+00  1.2680E-03   3.3287E+00  0.000E+00  0.000E+00  0.000E+00  1.17816E+02  1.366E+00  3.447E+00  6.795E-04  1.327E-03 -5.899E-05
   1    4   80     1    80    3.3287E+00  1.2677E-03   3.3275E+00  0.000E+00  0.000E+00  0.000E+00  1.17516E+02  1.366E+00  3.447E+00  6.794E-04  1.327E-03 -5.866E-05
   1    4   81     1    81    3.3275E+00  1.2673E-03   3.3262E+00  0.000E+00  0.000E+00  0.000E+00  1.17216E+02  1.366E+00  3.446E+00  6.793E-04  1.326E-03 -5.833E-05
   1    4   82     1    82    3.3262E+00  1.2670E-03   3.3249E+00  0.000E+00  0.000E+00  0.000E+00  1.16915E+02  1.365E+00  3.446E+00  6.792E-04  1.325E-03 -5.800E-05
   1    4   83     1    83    3.3249E+00  1.2667E-03   3.3237E+00  0.000E+00  0.000E+00  0.000E+00  1.16615E+02  1.365E+00  3.446E+00  6.791E-04  1.324E-03 -5.766E-05
   1    4   84     1    84    3.3237E+00  1.2663E-03   3.3224E+00  0.000E+00  0.000E+00  0.000E+00  1.16315E+02  1.365E+00  3.445E+00  6.790E-04  1.324E-03 -5.733E-05
   1    4   85     1    85    3.3224E+00  1.2660E-03   3.3211E+00  0.000E+00  0.000E+00  0.000E+00  1.16015E+02  1.365E+00  3.445E+00  6.789E-04  1.323E-03 -5.700E-05
   1    4   86     1    86    3.3211E+00  1.2656E-03   3.3199E+00  0.000E+00  0.000E+00  0.000E+00  1.15714E+02  1.364E+00  3.445E+00  6.788E-04  1.322E-03 -5.668E-05
   1    4   87     1    87    3.3199E+00  1.2653E-03   3.3186E+00  0.000E+00  0.000E+00  0.000E+00  1.15414E+02  1.364E+00  3.445E+00  6.788E-04  1.322E-03 -5.638E-05
   1    4   88     1    88    3.3186E+00  1.2649E-03   3.3173E+00  0.000E+00  0.000E+00  0.000E+00  1.15114E+02  1.364E+00  3.444E+00  6.787E-04  1.321E-03 -5.611E-05
   1    4   89     1    89    3.3173E+00  1.2646E-03   3.3161E+00  0.000E+00  0.000E+00  0.000E+00  1.14814E+02  1.364E+00  3.444E+00  6.786E-04  1.321E-03 -5.589E-05
   1    4   90     1    90    3.3161E+00  1.2642E-03   3.3148E+00  0.000E+00  0.000E+00  0.000E+00  1.14513E+02  1.363E+00  3.444E+00  6.785E-04  1.320E-03 -5.572E-05
   1    4   91     1    91    3.3148E+00  1.2639E-03   3.3136E+00  0.000E+00  0.000E+00  0.000E+00  1.14213E+02  1.363E+00  3.443E+00  6.784E-04  1.320E-03 -5.563E-05
   1    4   92     1    92    3.3136E+00  1.2635E-03   3.3123E+00  0.000E+00  0.000E+00  0.000E+00  1.13913E+02  1.363E+00  3.443E+00  6.783E-04  1.319E-03 -5.563E-05
   1    4   93     1    93    3.3123E+00  1.2632E-03   3.3110E+00  0.000E+00  0.000E+00  0.000E+00  1.13612E+02  1.362E+00  3.443E+00  6.782E-04  1.319E-03 -5.576E-05
   1    4   94     1    94    3.3110E+00  1.2628E-03   3.3098E+00  0.000E+00  0.000E+00  0.000E+00  1.13312E+02  1.362E+00  3.442E+00  6.781E-04  1.319E-03 -5.604E-05
   1    4   95     1    95    3.3098E+00  1.2625E-03   3.3085E+00  0.000E+00  0.000E+00  0.000E+00  1.13012E+02  1.362E+00  3.442E+00  6.781E-04  1.319E-03 -5.649E-05
   1    4   96     1    96    3.3085E+00  1.2621E-03   3.3072E+00  0.000E+00  0.000E+00  0.000E+00  1.12712E+02  1.362E+00  3.442E+00  6.780E-04  1.319E-03 -5.712E-05
   1    4   97     1    97    3.3072E+00  1.2618E-03   3.3060E+00  0.000E+00  0.000E+00  0.000E+00  1.12411E+02  1.361E+00  3.441E+00  6.779E-04  1.320E-03 -5.785E-05
   1    4   98     1    98    3.3060E+00  1.2614E-03   3.3047E+00  0.000E+00  0.000E+00  0.000E+00  1.12111E+02  1.361E+00  3.441E+00  6.778E-04  1.365E-03 -1.038E-04
   1    4   99     1    99    3.3047E+00  1.2611E-03   3.3035E+00  0.000E+00  0.000E+00  0.000E+00  1.11811E+02  1.361E+00  3.441E+00  6.777E-04  1.369E-03 -1.080E-04
   1    4  100     1   100    3.3035E+00  1.2607E-03   3.3022E+00  0.000E+00  0.000E+00  0.000E+00  1.11511E+02  1.361E+00  3.440E+00  6.776E-04  1.371E-03 -1.096E-04



1
  VOLUMETRIC BUDGET FOR UNSATURATED ZONE BENEATH STREAMS AT END OF TIME STEP    30 STRESS PERIOD  45
  ------------------------------------------------------------------------------------------------

    CUMULATIVE VOLUMES             L**3    RATES FOR THIS TIME STEP         L**3/T
    ------------------                     ------------------------


          STREAM LOSS =     34855975.5088            STREAM LOSS =            0.1278
    CHANGE IN STORAGE =       415103.0584      CHANGE IN STORAGE =       -7.1134E-03
       RECHARGE TO GW =     34446220.1534         RECHARGE TO GW =            0.1349

             TOTAL IN =     34855975.5088               TOTAL IN =            0.1349

            TOTAL OUT =     34861323.2117              TOTAL OUT =            0.1349

             IN - OUT =        -5347.7030               IN - OUT =       -1.5163E-05

  PERCENT DISCREPANCY =           -0.00      PERCENT DISCREPANCY =            -0.00



1
              HEAD IN LAYER   1 AT END OF TIME STEP  30 IN STRESS PERIOD   45
  ---------------------------------------------------------------------------

          1      2      3      4      5      6      7      8      9     10
         11     12     13     14     15     16     17     18     19     20
         21     22     23     24     25     26     27     28     29     30
         31     32     33     34     35     36     37     38     39     40
         41     42     43     44     45     46     47     48     49     50
         51     52     53     54     55     56     57     58     59     60
         61     62     63     64     65     66     67     68     69     70
         71     72     73     74     75     76     77     78     79     80
         81     82     83     84     85     86     87     88     89     90
         91     92     93     94     95     96     97     98     99    100
 .........................................................................
   1   115.6  115.6  115.6  115.6  115.6  115.6  115.5  115.5  115.4  115.4
       115.3  115.3  115.2  115.1  115.1  115.0  114.9  114.8  114.7  114.6
       114.5  114.4  114.2  114.1  114.0  113.8  113.7  113.5  113.3  113.2
       113.0  112.8  112.6  112.4  112.2  112.0  111.8  111.5  111.3  111.0
       110.8  110.5  110.2  110.0  109.7  109.4  109.1  108.8  108.4  108.1
       107.7  107.4  107.0  106.7  106.3  105.9  105.5  105.1  104.6  104.2
       103.7  103.3  102.8  102.3  101.8  101.3  100.8  100.3   99.7   99.2
        98.6   98.0   97.4   96.8   96.2   95.6   94.9   94.3   93.6   92.9
        92.2   91.4   90.7   89.9   89.2   88.4   87.5   86.7   85.9   85.0
        84.1   83.2   82.2   81.3   80.3   79.3   78.2   77.2   76.1   75.0
   2   115.6  115.6  115.6  115.6  115.6  115.6  115.5  115.5  115.5  115.4
       115.3  115.3  115.2  115.1  115.1  115.0  114.9  114.8  114.7  114.6
       114.5  114.4  114.2  114.1  114.0  113.8  113.7  113.5  113.3  113.2
       113.0  112.8  112.6  112.4  112.2  112.0  111.8  111.5  111.3  111.0
       110.8  110.5  110.2  110.0  109.7  109.4  109.1  108.8  108.4  108.1
       107.8  107.4  107.0  106.7  106.3  105.9  105.5  105.1  104.6  104.2
       103.8  103.3  102.8  102.3  101.8  101.3  100.8  100.3   99.7   99.2
        98.6   98.0   97.4   96.8   96.2   95.6   94.9   94.3   93.6   92.9
        92.2   91.4   90.7   89.9   89.2   88.4   87.5   86.7   85.9   85.0
        84.1   83.2   82.2   81.3   80.3   79.3   78.2   77.2   76.1   75.0
   3   115.7  115.6  115.6  115.6  115.6  115.6  115.5  115.5  115.5  115.4
       115.3  115.3  115.2  115.1  115.1  115.0  114.9  114.8  114.7  114.6
       114.5  114.4  114.2  114.1  114.0  113.8  113.7  113.5  113.3  113.2
       113.0  112.8  112.6  112.4  112.2  112.0  111.8  111.5  111.3  111.0
       110.8  110.5  110.2  110.0  109.7  109.4  109.1  108.8  108.4  108.1
       107.8  107.4  107.0  106.7  106.3  105.9  105.5  105.1  104.6  104.2
       103.8  103.3  102.8  102.3  101.8  101.3  100.8  100.3   99.8   99.2
        98.6   98.0   97.5   96.8   96.2   95.6   94.9   94.3   93.6   92.9
        92.2   91.4   90.7   89.9   89.2   88.4   87.5   86.7   85.9   85.0
        84.1   83.2   82.2   81.3   80.3   79.3   78.2   77.2   76.1   75.0
   4   115.7  115.6  115.6  115.6  115.6  115.6  115.5  115.5  115.5  115.4
       115.4  115.3  115.2  115.2  115.1  115.0  114.9  114.8  114.7  114.6
       114.5  114.4  114.2  114.1  114.0  113.8  113.7  113.5  113.3  113.2
       113.0  112.8  112.6  112.4  112.2  112.0  111.8  111.5  111.3  111.0
       110.8  110.5  110.3  110.0  109.7  109.4  109.1  108.8  108.4  108.1
       107.8  107.4  107.0  106.7  106.3  105.9  105.5  105.1  104.6  104.2
       103.8  103.3  102.8  102.3  101.9  101.3  100.8  100.3   99.8   99.2
        98.6   98.0   97.5   96.8   96.2   95.6   94.9   94.3   93.6   92.9
        92.2   91.5   90.7   89.9   89.2   88.4   87.5   86.7   85.9   85.0
        84.1   83.2   82.2   81.3   80.3   79.3   78.2   77.2   76.1   75.0
   5   115.7  115.6  115.6  115.6  115.6  115.6  115.5  115.5  115.5  115.4
       115.3  115.3  115.2  115.1  115.1  115.0  114.9  114.8  114.7  114.6
       114.5  114.4  114.2  114.1  114.0  113.8  113.7  113.5  113.3  113.2
       113.0  112.8  112.6  112.4  112.2  112.0  111.8  111.5  111.3  111.0
       110.8  110.5  110.2  110.0  109.7  109.4  109.1  108.8  108.4  108.1
       107.8  107.4  107.0  106.7  106.3  105.9  105.5  105.1  104.6  104.2
       103.8  103.3  102.8  102.3  101.8  101.3  100.8  100.3   99.8   99.2
        98.6   98.0   97.5   96.8   96.2   95.6   94.9   94.3   93.6   92.9
        92.2   91.4   90.7   89.9   89.2   88.4   87.5   86.7   85.9   85.0
        84.1   83.2   82.2   81.3   80.3   79.3   78.2   77.2   76.1   75.0
   6   115.6  115.6  115.6  115.6  115.6  115.6  115.5  115.5  115.5  115.4
       115.3  115.3  115.2  115.1  115.1  115.0  114.9  114.8  114.7  114.6
       114.5  114.4  114.2  114.1  114.0  113.8  113.7  113.5  113.3  113.2
       113.0  112.8  112.6  112.4  112.2  112.0  111.8  111.5  111.3  111.0
       110.8  110.5  110.2  110.0  109.7  109.4  109.1  108.8  108.4  108.1
       107.8  107.4  107.0  106.7  106.3  105.9  105.5  105.1  104.6  104.2
       103.8  103.3  102.8  102.3  101.8  101.3  100.8  100.3   99.7   99.2
        98.6   98.0   97.4   96.8   96.2   95.6   94.9   94.3   93.6   92.9
        92.2   91.4   90.7   89.9   89.2   88.4   87.5   86.7   85.9   85.0
        84.1   83.2   82.2   81.3   80.3   79.3   78.2   77.2   76.1   75.0
   7   115.6  115.6  115.6  115.6  115.6  115.6  115.5  115.5  115.4  115.4
       115.3  115.3  115.2  115.1  115.1  115.0  114.9  114.8  114.7  114.6
       114.5  114.4  114.2  114.1  114.0  113.8  113.7  113.5  113.3  113.2
       113.0  112.8  112.6  112.4  112.2  112.0  111.8  111.5  111.3  111.0
       110.8  110.5  110.2  110.0  109.7  109.4  109.1  108.8  108.4  108.1
       107.7  107.4  107.0  106.7  106.3  105.9  105.5  105.1  104.6  104.2
       103.7  103.3  102.8  102.3  101.8  101.3  100.8  100.3   99.7   99.2
        98.6   98.0   97.4   96.8   96.2   95.6   94.9   94.3   93.6   92.9
        92.2   91.4   90.7   89.9   89.2   88.4   87.5   86.7   85.9   85.0
        84.1   83.2   82.2   81.3   80.3   79.3   78.2   77.2   76.1   75.0



  -------------------------------------------------------------------------------------
  VOLUMETRIC BUDGET FOR ENTIRE MODEL AT END OF TIME STEP   30 IN STRESS PERIOD     45
  -------------------------------------------------------------------------------------

     CUMULATIVE VOLUMES      L**3       RATES FOR THIS TIME STEP      L**3/T
     ------------------                 ------------------------

           IN:                                      IN:
           ---                                      ---
             STORAGE =    16758347.8347               STORAGE =       6.6429E-02
       CONSTANT HEAD =           0.0000         CONSTANT HEAD =           0.0000
     HEAD DEP BOUNDS =           0.0000       HEAD DEP BOUNDS =           0.0000
      STREAM LEAKAGE =    34446220.1534        STREAM LEAKAGE =           0.1349

            TOTAL IN =    51204567.9881              TOTAL IN =           0.2014

          OUT:                                     OUT:
          ----                                     ----
             STORAGE =    17087081.3999               STORAGE =           0.0000
       CONSTANT HEAD =           0.0000         CONSTANT HEAD =           0.0000
     HEAD DEP BOUNDS =    34117488.6310       HEAD DEP BOUNDS =           0.2014
      STREAM LEAKAGE =           0.0000        STREAM LEAKAGE =           0.0000

           TOTAL OUT =    51204570.0309             TOTAL OUT =           0.2014

            IN - OUT =          -2.0428              IN - OUT =      -1.9425E-07

 PERCENT DISCREPANCY =          -0.00     PERCENT DISCREPANCY =          -0.00


          TIME SUMMARY AT END OF TIME STEP    30 IN STRESS PERIOD     45
                    SECONDS     MINUTES      HOURS       DAYS        YEARS
                    -----------------------------------------------------------
   TIME STEP LENGTH 2.49961E+05  4166.0      69.434      2.8931     7.92080E-03
 STRESS PERIOD TIME 2.59200E+06  43200.      720.00      30.000     8.21355E-02
         TOTAL TIME 1.16640E+08 1.94400E+06  32400.      1350.0      3.6961    
 
1
                            STRESS PERIOD NO.     46, LENGTH =   2592000.    
                            -----------------------------------------------

                              NUMBER OF TIME STEPS =    30

                               MULTIPLIER FOR DELT =     1.100

                            INITIAL TIME STEP SIZE =   15757.41    

 REUSING NON-PARAMETER GHB CELLS FROM LAST STRESS PERIOD

      7 GHB CELLS



 CLASSIFICATION & COUNT OF STREAM SEGMENTS BASED ON SOURCE OF INFLOW:

                HEADWATER     DIVERSION     RECEIVES TRIBUTARY FLOW
                ---------     ---------     -----------------------
                     1              0               0



                    INPUT DATA FOR EACH STREAM SEGMENT
 ---------------------------------------------------------------------------------------------

 SEGMENT    SEG.     INFLOW   OVERLAND   STREAM    STREAM   ICALC  OUTFLOW  DIVERSION PRIORITY
    NO.    LENGTH     RATE     RUNOFF      ET       PPT.    METH.  TO SEG.  FROM SEG.    NO.

      1  2.000E+04 5.000E-01 0.000E+00 0.000E+00 0.000E+00    2        0        0        0


         STREAMBED PROPERTIES AND STREAM DIMENSIONS

 SEGMENT     BED HYD. COND.      BED THICKNESS     ELEV.-TOP OF BED     WIDTH OF STREAM     DEPTH OF STREAM    STREAM ROUGHNESS
    No.     UPPER     LOWER     UPPER     LOWER     UPPER     LOWER     UPPER     LOWER     UPPER     LOWER   CHANNEL      BANK

     1  3.500E-07 3.500E-07                                                                                 3.000E-02 4.000E-02

  EIGHT POINT CROSS-SECTION DATA FOR SEGMENTS WITH ICALC = 2
    X VALUES X VALUES START FROM LEFT SIDE LOOKING DOWNSTREAM

     SEGMENT NO.        X1        X2        X3        X4        X5        X6        X7        X8
            1      0.000E+00 2.000E+00 4.000E+00 6.000E+00 8.000E+00 1.000E+01 1.200E+01 1.400E+01

    Z VALUES ARE RELATIVE TO STREAMBED ELEVATION

     SEGMENT NO.          Z1        Z2        Z3        Z4        Z5        Z6        Z7        Z8
            1      6.000E+00 4.500E+00 3.500E+00 0.000E+00 3.000E-01 3.500E+00 4.500E+00 6.000E+00
 
 SOLVING FOR HEAD 

 NO OUTPUT CONTROL FOR STRESS PERIOD     46   TIME STEP     1
 
 SOLVING FOR HEAD 

 NO OUTPUT CONTROL FOR STRESS PERIOD     46   TIME STEP     2
 
 SOLVING FOR HEAD 

 NO OUTPUT CONTROL FOR STRESS PERIOD     46   TIME STEP     3
 
 SOLVING FOR HEAD 

 NO OUTPUT CONTROL FOR STRESS PERIOD     46   TIME STEP     4
 
 SOLVING FOR HEAD 

 NO OUTPUT CONTROL FOR STRESS PERIOD     46   TIME STEP     5
 
 SOLVING FOR HEAD 

 NO OUTPUT CONTROL FOR STRESS PERIOD     46   TIME STEP     6
 
 SOLVING FOR HEAD 

 NO OUTPUT CONTROL FOR STRESS PERIOD     46   TIME STEP     7
 
 SOLVING FOR HEAD 

 NO OUTPUT CONTROL FOR STRESS PERIOD     46   TIME STEP     8
 
 SOLVING FOR HEAD 

 NO OUTPUT CONTROL FOR STRESS PERIOD     46   TIME STEP     9
 
 SOLVING FOR HEAD 

 NO OUTPUT CONTROL FOR STRESS PERIOD     46   TIME STEP    10
 
 SOLVING FOR HEAD 

 NO OUTPUT CONTROL FOR STRESS PERIOD     46   TIME STEP    11
 
 SOLVING FOR HEAD 

 NO OUTPUT CONTROL FOR STRESS PERIOD     46   TIME STEP    12
 
 SOLVING FOR HEAD 

 NO OUTPUT CONTROL FOR STRESS PERIOD     46   TIME STEP    13
 
 SOLVING FOR HEAD 

 NO OUTPUT CONTROL FOR STRESS PERIOD     46   TIME STEP    14
 
 SOLVING FOR HEAD 

 NO OUTPUT CONTROL FOR STRESS PERIOD     46   TIME STEP    15
 
 SOLVING FOR HEAD 

 NO OUTPUT CONTROL FOR STRESS PERIOD     46   TIME STEP    16
 
 SOLVING FOR HEAD 

 NO OUTPUT CONTROL FOR STRESS PERIOD     46   TIME STEP    17
 
 SOLVING FOR HEAD 

 NO OUTPUT CONTROL FOR STRESS PERIOD     46   TIME STEP    18
 
 SOLVING FOR HEAD 

 NO OUTPUT CONTROL FOR STRESS PERIOD     46   TIME STEP    19
 
 SOLVING FOR HEAD 

 NO OUTPUT CONTROL FOR STRESS PERIOD     46   TIME STEP    20
 
 SOLVING FOR HEAD 

 NO OUTPUT CONTROL FOR STRESS PERIOD     46   TIME STEP    21
 
 SOLVING FOR HEAD 

 NO OUTPUT CONTROL FOR STRESS PERIOD     46   TIME STEP    22
 
 SOLVING FOR HEAD 

 NO OUTPUT CONTROL FOR STRESS PERIOD     46   TIME STEP    23
 
 SOLVING FOR HEAD 

 NO OUTPUT CONTROL FOR STRESS PERIOD     46   TIME STEP    24
 
 SOLVING FOR HEAD 

 NO OUTPUT CONTROL FOR STRESS PERIOD     46   TIME STEP    25
 
 SOLVING FOR HEAD 

 NO OUTPUT CONTROL FOR STRESS PERIOD     46   TIME STEP    26
 
 SOLVING FOR HEAD 

 NO OUTPUT CONTROL FOR STRESS PERIOD     46   TIME STEP    27
 
 SOLVING FOR HEAD 

 NO OUTPUT CONTROL FOR STRESS PERIOD     46   TIME STEP    28
 
 SOLVING FOR HEAD 

 NO OUTPUT CONTROL FOR STRESS PERIOD     46   TIME STEP    29
 
 SOLVING FOR HEAD 

 NO OUTPUT CONTROL FOR STRESS PERIOD     46   TIME STEP    30



 STREAM LISTING     PERIOD     46   STEP       30

 LAYER ROW COL. STREAM  RCH.   FLOW INTO    STREAM     FLOW OUT OF   OVRLND.    DIRECT     STREAM      STREAM      STREAM     STREAM  STREAMBED   FLOW TO   CHNG. UNSAT. 
                SEG.NO.  NO.   STRM. RCH.    LOSS       STRM. RCH.   RUNOFF     PRECIP       ET         HEAD        DEPTH      WIDTH  CONDCTNC.   WAT. TAB.

   1    4    1     1     1    5.0000E-01  4.2219E-04   4.9958E-01  0.000E+00  0.000E+00  0.000E+00  1.40385E+02  5.346E-01  2.452E+00  4.081E-04  4.733E-04 -5.107E-05
   1    4    2     1     2    4.9958E-01  4.2204E-04   4.9916E-01  0.000E+00  0.000E+00  0.000E+00  1.40084E+02  5.344E-01  2.452E+00  4.080E-04  4.729E-04 -5.090E-05
   1    4    3     1     3    4.9916E-01  4.2189E-04   4.9873E-01  0.000E+00  0.000E+00  0.000E+00  1.39784E+02  5.342E-01  2.452E+00  4.079E-04  4.726E-04 -5.073E-05
   1    4    4     1     4    4.9873E-01  4.2174E-04   4.9831E-01  0.000E+00  0.000E+00  0.000E+00  1.39484E+02  5.340E-01  2.451E+00  4.079E-04  4.723E-04 -5.056E-05
   1    4    5     1     5    4.9831E-01  4.2159E-04   4.9789E-01  0.000E+00  0.000E+00  0.000E+00  1.39184E+02  5.338E-01  2.451E+00  4.078E-04  4.714E-04 -4.978E-05
   1    4    6     1     6    4.9789E-01  4.2144E-04   4.9747E-01  0.000E+00  0.000E+00  0.000E+00  1.38884E+02  5.336E-01  2.451E+00  4.077E-04  4.688E-04 -4.734E-05
   1    4    7     1     7    4.9747E-01  4.2129E-04   4.9705E-01  0.000E+00  0.000E+00  0.000E+00  1.38583E+02  5.334E-01  2.451E+00  4.077E-04  4.662E-04 -4.495E-05
   1    4    8     1     8    4.9705E-01  4.2114E-04   4.9663E-01  0.000E+00  0.000E+00  0.000E+00  1.38283E+02  5.332E-01  2.450E+00  4.076E-04  4.638E-04 -4.263E-05
   1    4    9     1     9    4.9663E-01  4.2099E-04   4.9621E-01  0.000E+00  0.000E+00  0.000E+00  1.37983E+02  5.330E-01  2.450E+00  4.075E-04  4.614E-04 -4.037E-05
   1    4   10     1    10    4.9621E-01  4.2083E-04   4.9578E-01  0.000E+00  0.000E+00  0.000E+00  1.37683E+02  5.328E-01  2.450E+00  4.075E-04  4.590E-04 -3.817E-05
   1    4   11     1    11    4.9578E-01  4.2068E-04   4.9536E-01  0.000E+00  0.000E+00  0.000E+00  1.37383E+02  5.326E-01  2.450E+00  4.074E-04  4.582E-04 -3.749E-05
   1    4   12     1    12    4.9536E-01  4.2053E-04   4.9494E-01  0.000E+00  0.000E+00  0.000E+00  1.37082E+02  5.324E-01  2.449E+00  4.073E-04  4.579E-04 -3.732E-05
   1    4   13     1    13    4.9494E-01  4.2038E-04   4.9452E-01  0.000E+00  0.000E+00  0.000E+00  1.36782E+02  5.322E-01  2.449E+00  4.073E-04  4.575E-04 -3.715E-05
   1    4   14     1    14    4.9452E-01  4.2023E-04   4.9410E-01  0.000E+00  0.000E+00  0.000E+00  1.36482E+02  5.320E-01  2.449E+00  4.072E-04  4.572E-04 -3.697E-05
   1    4   15     1    15    4.9410E-01  4.2008E-04   4.9368E-01  0.000E+00  0.000E+00  0.000E+00  1.36182E+02  5.318E-01  2.449E+00  4.071E-04  4.569E-04 -3.679E-05
   1    4   16     1    16    4.9368E-01  4.1993E-04   4.9326E-01  0.000E+00  0.000E+00  0.000E+00  1.35882E+02  5.316E-01  2.448E+00  4.071E-04  4.565E-04 -3.660E-05
   1    4   17     1    17    4.9326E-01  4.1978E-04   4.9284E-01  0.000E+00  0.000E+00  0.000E+00  1.35581E+02  5.314E-01  2.448E+00  4.070E-04  4.562E-04 -3.640E-05
   1    4   18     1    18    4.9284E-01  4.1963E-04   4.9242E-01  0.000E+00  0.000E+00  0.000E+00  1.35281E+02  5.312E-01  2.448E+00  4.069E-04  4.558E-04 -3.620E-05
   1    4   19     1    19    4.9242E-01  4.1948E-04   4.9200E-01  0.000E+00  0.000E+00  0.000E+00  1.34981E+02  5.310E-01  2.448E+00  4.069E-04  4.555E-04 -3.599E-05
   1    4   20     1    20    4.9200E-01  4.1933E-04   4.9158E-01  0.000E+00  0.000E+00  0.000E+00  1.34681E+02  5.308E-01  2.448E+00  4.068E-04  4.551E-04 -3.577E-05
   1    4   21     1    21    4.9158E-01  4.1918E-04   4.9117E-01  0.000E+00  0.000E+00  0.000E+00  1.34381E+02  5.306E-01  2.447E+00  4.067E-04  4.547E-04 -3.555E-05
   1    4   22     1    22    4.9117E-01  4.1903E-04   4.9075E-01  0.000E+00  0.000E+00  0.000E+00  1.34080E+02  5.304E-01  2.447E+00  4.067E-04  4.544E-04 -3.533E-05
   1    4   23     1    23    4.9075E-01  4.1888E-04   4.9033E-01  0.000E+00  0.000E+00  0.000E+00  1.33780E+02  5.302E-01  2.447E+00  4.066E-04  4.540E-04 -3.510E-05
   1    4   24     1    24    4.9033E-01  4.1873E-04   4.8991E-01  0.000E+00  0.000E+00  0.000E+00  1.33480E+02  5.300E-01  2.447E+00  4.066E-04  4.536E-04 -3.487E-05
   1    4   25     1    25    4.8991E-01  4.1858E-04   4.8949E-01  0.000E+00  0.000E+00  0.000E+00  1.33180E+02  5.298E-01  2.446E+00  4.065E-04  4.532E-04 -3.464E-05
   1    4   26     1    26    4.8949E-01  4.1843E-04   4.8907E-01  0.000E+00  0.000E+00  0.000E+00  1.32880E+02  5.296E-01  2.446E+00  4.064E-04  4.528E-04 -3.440E-05
   1    4   27     1    27    4.8907E-01  4.1828E-04   4.8865E-01  0.000E+00  0.000E+00  0.000E+00  1.32579E+02  5.294E-01  2.446E+00  4.064E-04  4.524E-04 -3.416E-05
   1    4   28     1    28    4.8865E-01  4.1813E-04   4.8824E-01  0.000E+00  0.000E+00  0.000E+00  1.32279E+02  5.291E-01  2.446E+00  4.063E-04  4.520E-04 -3.392E-05
   1    4   29     1    29    4.8824E-01  4.1798E-04   4.8782E-01  0.000E+00  0.000E+00  0.000E+00  1.31979E+02  5.289E-01  2.445E+00  4.062E-04  4.517E-04 -3.368E-05
   1    4   30     1    30    4.8782E-01  4.1783E-04   4.8740E-01  0.000E+00  0.000E+00  0.000E+00  1.31679E+02  5.287E-01  2.445E+00  4.062E-04  4.513E-04 -3.343E-05
   1    4   31     1    31    4.8740E-01  4.1768E-04   4.8698E-01  0.000E+00  0.000E+00  0.000E+00  1.31379E+02  5.285E-01  2.445E+00  4.061E-04  4.509E-04 -3.318E-05
   1    4   32     1    32    4.8698E-01  4.1753E-04   4.8656E-01  0.000E+00  0.000E+00  0.000E+00  1.31078E+02  5.283E-01  2.445E+00  4.060E-04  4.505E-04 -3.293E-05
   1    4   33     1    33    4.8656E-01  4.1738E-04   4.8615E-01  0.000E+00  0.000E+00  0.000E+00  1.30778E+02  5.281E-01  2.444E+00  4.060E-04  4.501E-04 -3.268E-05
   1    4   34     1    34    4.8615E-01  4.1723E-04   4.8573E-01  0.000E+00  0.000E+00  0.000E+00  1.30478E+02  5.279E-01  2.444E+00  4.059E-04  4.497E-04 -3.243E-05
   1    4   35     1    35    4.8573E-01  4.1708E-04   4.8531E-01  0.000E+00  0.000E+00  0.000E+00  1.30178E+02  5.277E-01  2.444E+00  4.058E-04  4.493E-04 -3.218E-05
   1    4   36     1    36    4.8531E-01  4.1693E-04   4.8490E-01  0.000E+00  0.000E+00  0.000E+00  1.29878E+02  5.275E-01  2.444E+00  4.058E-04  4.489E-04 -3.193E-05
   1    4   37     1    37    4.8490E-01  4.1678E-04   4.8448E-01  0.000E+00  0.000E+00  0.000E+00  1.29577E+02  5.273E-01  2.443E+00  4.057E-04  4.485E-04 -3.168E-05
   1    4   38     1    38    4.8448E-01  4.1663E-04   4.8406E-01  0.000E+00  0.000E+00  0.000E+00  1.29277E+02  5.271E-01  2.443E+00  4.056E-04  4.481E-04 -3.143E-05
   1    4   39     1    39    4.8406E-01  4.1648E-04   4.8365E-01  0.000E+00  0.000E+00  0.000E+00  1.28977E+02  5.269E-01  2.443E+00  4.056E-04  4.477E-04 -3.118E-05
   1    4   40     1    40    4.8365E-01  4.1633E-04   4.8323E-01  0.000E+00  0.000E+00  0.000E+00  1.28677E+02  5.267E-01  2.443E+00  4.055E-04  4.473E-04 -3.094E-05
   1    4   41     1    41    4.8323E-01  4.1618E-04   4.8281E-01  0.000E+00  0.000E+00  0.000E+00  1.28377E+02  5.265E-01  2.442E+00  4.054E-04  4.469E-04 -3.069E-05
   1    4   42     1    42    4.8281E-01  4.1603E-04   4.8240E-01  0.000E+00  0.000E+00  0.000E+00  1.28076E+02  5.263E-01  2.442E+00  4.054E-04  4.465E-04 -3.045E-05
   1    4   43     1    43    4.8240E-01  4.1588E-04   4.8198E-01  0.000E+00  0.000E+00  0.000E+00  1.27776E+02  5.261E-01  2.442E+00  4.053E-04  4.461E-04 -3.021E-05
   1    4   44     1    44    4.8198E-01  4.1573E-04   4.8157E-01  0.000E+00  0.000E+00  0.000E+00  1.27476E+02  5.259E-01  2.442E+00  4.052E-04  4.457E-04 -2.997E-05
   1    4   45     1    45    4.8157E-01  4.1558E-04   4.8115E-01  0.000E+00  0.000E+00  0.000E+00  1.27176E+02  5.257E-01  2.441E+00  4.052E-04  4.453E-04 -2.973E-05
   1    4   46     1    46    4.8115E-01  4.1543E-04   4.8073E-01  0.000E+00  0.000E+00  0.000E+00  1.26876E+02  5.255E-01  2.441E+00  4.051E-04  4.449E-04 -2.950E-05
   1    4   47     1    47    4.8073E-01  4.1528E-04   4.8032E-01  0.000E+00  0.000E+00  0.000E+00  1.26575E+02  5.253E-01  2.441E+00  4.050E-04  4.446E-04 -2.927E-05
   1    4   48     1    48    4.8032E-01  4.1513E-04   4.7990E-01  0.000E+00  0.000E+00  0.000E+00  1.26275E+02  5.251E-01  2.441E+00  4.050E-04  4.442E-04 -2.904E-05
   1    4   49     1    49    4.7990E-01  4.1498E-04   4.7949E-01  0.000E+00  0.000E+00  0.000E+00  1.25975E+02  5.249E-01  2.441E+00  4.049E-04  4.438E-04 -2.882E-05
   1    4   50     1    50    4.7949E-01  4.1483E-04   4.7907E-01  0.000E+00  0.000E+00  0.000E+00  1.25675E+02  5.247E-01  2.440E+00  4.048E-04  4.434E-04 -2.860E-05
   1    4   51     1    51    4.7907E-01  4.1469E-04   4.7866E-01  0.000E+00  0.000E+00  0.000E+00  1.25374E+02  5.245E-01  2.440E+00  4.048E-04  4.431E-04 -2.839E-05
   1    4   52     1    52    4.7866E-01  4.1454E-04   4.7825E-01  0.000E+00  0.000E+00  0.000E+00  1.25074E+02  5.243E-01  2.440E+00  4.047E-04  4.427E-04 -2.818E-05
   1    4   53     1    53    4.7825E-01  4.1439E-04   4.7783E-01  0.000E+00  0.000E+00  0.000E+00  1.24774E+02  5.241E-01  2.440E+00  4.046E-04  4.424E-04 -2.798E-05
   1    4   54     1    54    4.7783E-01  4.1424E-04   4.7742E-01  0.000E+00  0.000E+00  0.000E+00  1.24474E+02  5.239E-01  2.439E+00  4.046E-04  4.420E-04 -2.778E-05
   1    4   55     1    55    4.7742E-01  4.1409E-04   4.7700E-01  0.000E+00  0.000E+00  0.000E+00  1.24174E+02  5.237E-01  2.439E+00  4.045E-04  4.417E-04 -2.759E-05
   1    4   56     1    56    4.7700E-01  4.1394E-04   4.7659E-01  0.000E+00  0.000E+00  0.000E+00  1.23873E+02  5.235E-01  2.439E+00  4.044E-04  4.413E-04 -2.740E-05
   1    4   57     1    57    4.7659E-01  4.1379E-04   4.7617E-01  0.000E+00  0.000E+00  0.000E+00  1.23573E+02  5.233E-01  2.439E+00  4.044E-04  4.410E-04 -2.721E-05
   1    4   58     1    58    4.7617E-01  4.1364E-04   4.7576E-01  0.000E+00  0.000E+00  0.000E+00  1.23273E+02  5.231E-01  2.438E+00  4.043E-04  4.407E-04 -2.703E-05
   1    4   59     1    59    4.7576E-01  4.1349E-04   4.7535E-01  0.000E+00  0.000E+00  0.000E+00  1.22973E+02  5.229E-01  2.438E+00  4.042E-04  4.403E-04 -2.685E-05
   1    4   60     1    60    4.7535E-01  4.1334E-04   4.7493E-01  0.000E+00  0.000E+00  0.000E+00  1.22673E+02  5.227E-01  2.438E+00  4.042E-04  4.400E-04 -2.668E-05
   1    4   61     1    61    4.7493E-01  4.1319E-04   4.7452E-01  0.000E+00  0.000E+00  0.000E+00  1.22372E+02  5.225E-01  2.438E+00  4.041E-04  4.397E-04 -2.651E-05
   1    4   62     1    62    4.7452E-01  4.1304E-04   4.7411E-01  0.000E+00  0.000E+00  0.000E+00  1.22072E+02  5.223E-01  2.437E+00  4.040E-04  4.401E-04 -2.706E-05
   1    4   63     1    63    4.7411E-01  4.1289E-04   4.7370E-01  0.000E+00  0.000E+00  0.000E+00  1.21772E+02  5.221E-01  2.437E+00  4.040E-04  4.422E-04 -2.935E-05
   1    4   64     1    64    4.7370E-01  4.1275E-04   4.7328E-01  0.000E+00  0.000E+00  0.000E+00  1.21472E+02  5.219E-01  2.437E+00  4.039E-04  4.445E-04 -3.177E-05
   1    4   65     1    65    4.7328E-01  4.1260E-04   4.7287E-01  0.000E+00  0.000E+00  0.000E+00  1.21172E+02  5.217E-01  2.437E+00  4.038E-04  4.469E-04 -3.430E-05
   1    4   66     1    66    4.7287E-01  4.1245E-04   4.7246E-01  0.000E+00  0.000E+00  0.000E+00  1.20871E+02  5.215E-01  2.436E+00  4.038E-04  4.471E-04 -3.468E-05
   1    4   67     1    67    4.7246E-01  4.1230E-04   4.7205E-01  0.000E+00  0.000E+00  0.000E+00  1.20571E+02  5.213E-01  2.436E+00  4.037E-04  4.468E-04 -3.450E-05
   1    4   68     1    68    4.7205E-01  4.1215E-04   4.7163E-01  0.000E+00  0.000E+00  0.000E+00  1.20271E+02  5.211E-01  2.436E+00  4.036E-04  4.465E-04 -3.432E-05
   1    4   69     1    69    4.7163E-01  4.1200E-04   4.7122E-01  0.000E+00  0.000E+00  0.000E+00  1.19971E+02  5.209E-01  2.436E+00  4.036E-04  4.461E-04 -3.415E-05
   1    4   70     1    70    4.7122E-01  4.1185E-04   4.7081E-01  0.000E+00  0.000E+00  0.000E+00  1.19671E+02  5.207E-01  2.435E+00  4.035E-04  4.458E-04 -3.397E-05
   1    4   71     1    71    4.7081E-01  4.1170E-04   4.7040E-01  0.000E+00  0.000E+00  0.000E+00  1.19370E+02  5.205E-01  2.435E+00  4.034E-04  4.455E-04 -3.380E-05
   1    4   72     1    72    4.7040E-01  4.1155E-04   4.6999E-01  0.000E+00  0.000E+00  0.000E+00  1.19070E+02  5.203E-01  2.435E+00  4.034E-04  4.452E-04 -3.362E-05
   1    4   73     1    73    4.6999E-01  4.1141E-04   4.6957E-01  0.000E+00  0.000E+00  0.000E+00  1.18770E+02  5.201E-01  2.435E+00  4.033E-04  4.449E-04 -3.345E-05
   1    4   74     1    74    4.6957E-01  4.1126E-04   4.6916E-01  0.000E+00  0.000E+00  0.000E+00  1.18470E+02  5.199E-01  2.434E+00  4.033E-04  4.445E-04 -3.328E-05
   1    4   75     1    75    4.6916E-01  4.1111E-04   4.6875E-01  0.000E+00  0.000E+00  0.000E+00  1.18170E+02  5.196E-01  2.434E+00  4.032E-04  4.442E-04 -3.311E-05
   1    4   76     1    76    4.6875E-01  4.1096E-04   4.6834E-01  0.000E+00  0.000E+00  0.000E+00  1.17869E+02  5.194E-01  2.434E+00  4.031E-04  4.439E-04 -3.294E-05
   1    4   77     1    77    4.6834E-01  4.1081E-04   4.6793E-01  0.000E+00  0.000E+00  0.000E+00  1.17569E+02  5.192E-01  2.434E+00  4.031E-04  4.449E-04 -3.410E-05
   1    4   78     1    78    4.6793E-01  4.1066E-04   4.6752E-01  0.000E+00  0.000E+00  0.000E+00  1.17269E+02  5.190E-01  2.433E+00  4.030E-04  4.482E-04 -3.759E-05
   1    4   79     1    79    4.6752E-01  4.1051E-04   4.6711E-01  0.000E+00  0.000E+00  0.000E+00  1.16969E+02  5.188E-01  2.433E+00  4.029E-04  4.515E-04 -4.098E-05
   1    4   80     1    80    4.6711E-01  4.1037E-04   4.6670E-01  0.000E+00  0.000E+00  0.000E+00  1.16669E+02  5.186E-01  2.433E+00  4.029E-04  4.512E-04 -4.080E-05
   1    4   81     1    81    4.6670E-01  4.1022E-04   4.6629E-01  0.000E+00  0.000E+00  0.000E+00  1.16368E+02  5.184E-01  2.433E+00  4.028E-04  4.508E-04 -4.061E-05
   1    4   82     1    82    4.6629E-01  4.1007E-04   4.6588E-01  0.000E+00  0.000E+00  0.000E+00  1.16068E+02  5.182E-01  2.433E+00  4.027E-04  4.505E-04 -4.043E-05
   1    4   83     1    83    4.6588E-01  4.0992E-04   4.6547E-01  0.000E+00  0.000E+00  0.000E+00  1.15768E+02  5.180E-01  2.432E+00  4.027E-04  4.502E-04 -4.027E-05
   1    4   84     1    84    4.6547E-01  4.0977E-04   4.6506E-01  0.000E+00  0.000E+00  0.000E+00  1.15468E+02  5.178E-01  2.432E+00  4.026E-04  4.499E-04 -4.011E-05
   1    4   85     1    85    4.6506E-01  4.0962E-04   4.6465E-01  0.000E+00  0.000E+00  0.000E+00  1.15168E+02  5.176E-01  2.432E+00  4.025E-04  4.505E-04 -4.089E-05
   1    4   86     1    86    4.6465E-01  4.0947E-04   4.6424E-01  0.000E+00  0.000E+00  0.000E+00  1.14867E+02  5.174E-01  2.432E+00  4.025E-04  4.538E-04 -4.437E-05
   1    4   87     1    87    4.6424E-01  4.0933E-04   4.6383E-01  0.000E+00  0.000E+00  0.000E+00  1.14567E+02  5.172E-01  2.431E+00  4.024E-04  4.565E-04 -4.713E-05
   1    4   88     1    88    4.6383E-01  4.0918E-04   4.6342E-01  0.000E+00  0.000E+00  0.000E+00  1.14267E+02  5.170E-01  2.431E+00  4.023E-04  4.563E-04 -4.708E-05
   1    4   89     1    89    4.6342E-01  4.0903E-04   4.6301E-01  0.000E+00  0.000E+00  0.000E+00  1.13967E+02  5.168E-01  2.431E+00  4.023E-04  4.561E-04 -4.706E-05
   1    4   90     1    90    4.6301E-01  4.0888E-04   4.6260E-01  0.000E+00  0.000E+00  0.000E+00  1.13667E+02  5.166E-01  2.431E+00  4.022E-04  4.569E-04 -4.806E-05
   1    4   91     1    91    4.6260E-01  4.0873E-04   4.6219E-01  0.000E+00  0.000E+00  0.000E+00  1.13366E+02  5.164E-01  2.430E+00  4.021E-04  4.598E-04 -5.102E-05
   1    4   92     1    92    4.6219E-01  4.0859E-04   4.6179E-01  0.000E+00  0.000E+00  0.000E+00  1.13066E+02  5.162E-01  2.430E+00  4.021E-04  4.615E-04 -5.290E-05
   1    4   93     1    93    4.6179E-01  4.0844E-04   4.6138E-01  0.000E+00  0.000E+00  0.000E+00  1.12766E+02  5.160E-01  2.430E+00  4.020E-04  4.618E-04 -5.318E-05
   1    4   94     1    94    4.6138E-01  4.0829E-04   4.6097E-01  0.000E+00  0.000E+00  0.000E+00  1.12466E+02  5.158E-01  2.430E+00  4.019E-04  4.621E-04 -5.366E-05
   1    4   95     1    95    4.6097E-01  4.0814E-04   4.6056E-01  0.000E+00  0.000E+00  0.000E+00  1.12166E+02  5.156E-01  2.429E+00  4.019E-04  4.627E-04 -5.436E-05
   1    4   96     1    96    4.6056E-01  4.0799E-04   4.6015E-01  0.000E+00  0.000E+00  0.000E+00  1.11865E+02  5.154E-01  2.429E+00  4.018E-04  4.635E-04 -5.530E-05
   1    4   97     1    97    4.6015E-01  4.0784E-04   4.5975E-01  0.000E+00  0.000E+00  0.000E+00  1.11565E+02  5.152E-01  2.429E+00  4.017E-04  4.645E-04 -5.650E-05
   1    4   98     1    98    4.5975E-01  4.0770E-04   4.5934E-01  0.000E+00  0.000E+00  0.000E+00  1.11265E+02  5.150E-01  2.429E+00  4.017E-04  4.658E-04 -5.797E-05
   1    4   99     1    99    4.5934E-01  4.0755E-04   4.5893E-01  0.000E+00  0.000E+00  0.000E+00  1.10965E+02  5.148E-01  2.428E+00  4.016E-04  4.675E-04 -5.975E-05
   1    4  100     1   100    4.5893E-01  4.0740E-04   4.5852E-01  0.000E+00  0.000E+00  0.000E+00  1.10665E+02  5.146E-01  2.428E+00  4.015E-04  4.696E-04 -6.199E-05



1
  VOLUMETRIC BUDGET FOR UNSATURATED ZONE BENEATH STREAMS AT END OF TIME STEP    30 STRESS PERIOD  46
  ------------------------------------------------------------------------------------------------

    CUMULATIVE VOLUMES             L**3    RATES FOR THIS TIME STEP         L**3/T
    ------------------                     ------------------------


          STREAM LOSS =     34963484.4534            STREAM LOSS =        4.1477E-02
    CHANGE IN STORAGE =       322722.7449      CHANGE IN STORAGE =       -3.7372E-03
       RECHARGE TO GW =     34646108.1778         RECHARGE TO GW =        4.5216E-02

             TOTAL IN =     34963484.4534               TOTAL IN =        4.5214E-02

            TOTAL OUT =     34968830.9227              TOTAL OUT =        4.5216E-02

             IN - OUT =        -5346.4693               IN - OUT =       -1.3511E-06

  PERCENT DISCREPANCY =           -0.00      PERCENT DISCREPANCY =            -0.00






  -------------------------------------------------------------------------------------
  VOLUMETRIC BUDGET FOR ENTIRE MODEL AT END OF TIME STEP   30 IN STRESS PERIOD     46
  -------------------------------------------------------------------------------------

     CUMULATIVE VOLUMES      L**3       RATES FOR THIS TIME STEP      L**3/T
     ------------------                 ------------------------

           IN:                                      IN:
           ---                                      ---
             STORAGE =    17073056.5674               STORAGE =           0.1498
       CONSTANT HEAD =           0.0000         CONSTANT HEAD =           0.0000
     HEAD DEP BOUNDS =           0.0000       HEAD DEP BOUNDS =           0.0000
      STREAM LEAKAGE =    34646108.1778        STREAM LEAKAGE =       4.5216E-02

            TOTAL IN =    51719164.7452              TOTAL IN =           0.1951

          OUT:                                     OUT:
          ----                                     ----
             STORAGE =    17087081.3999               STORAGE =           0.0000
       CONSTANT HEAD =           0.0000         CONSTANT HEAD =           0.0000
     HEAD DEP BOUNDS =    34632086.4570       HEAD DEP BOUNDS =           0.1951
      STREAM LEAKAGE =           0.0000        STREAM LEAKAGE =           0.0000

           TOTAL OUT =    51719167.8569             TOTAL OUT =           0.1951

            IN - OUT =          -3.1117              IN - OUT =      -3.1193E-07

 PERCENT DISCREPANCY =          -0.00     PERCENT DISCREPANCY =          -0.00


          TIME SUMMARY AT END OF TIME STEP    30 IN STRESS PERIOD     46
                    SECONDS     MINUTES      HOURS       DAYS        YEARS
                    -----------------------------------------------------------
   TIME STEP LENGTH 2.49961E+05  4166.0      69.434      2.8931     7.92080E-03
 STRESS PERIOD TIME 2.59200E+06  43200.      720.00      30.000     8.21355E-02
         TOTAL TIME 1.19232E+08 1.98720E+06  33120.      1380.0      3.7782    
 
1
                            STRESS PERIOD NO.     47, LENGTH =   2592000.    
                            -----------------------------------------------

                              NUMBER OF TIME STEPS =    30

                               MULTIPLIER FOR DELT =     1.100

                            INITIAL TIME STEP SIZE =   15757.41    

 REUSING NON-PARAMETER GHB CELLS FROM LAST STRESS PERIOD

      7 GHB CELLS



 CLASSIFICATION & COUNT OF STREAM SEGMENTS BASED ON SOURCE OF INFLOW:

                HEADWATER     DIVERSION     RECEIVES TRIBUTARY FLOW
                ---------     ---------     -----------------------
                     1              0               0



                    INPUT DATA FOR EACH STREAM SEGMENT
 ---------------------------------------------------------------------------------------------

 SEGMENT    SEG.     INFLOW   OVERLAND   STREAM    STREAM   ICALC  OUTFLOW  DIVERSION PRIORITY
    NO.    LENGTH     RATE     RUNOFF      ET       PPT.    METH.  TO SEG.  FROM SEG.    NO.

      1  2.000E+04 2.100E+00 0.000E+00 0.000E+00 0.000E+00    2        0        0        0


         STREAMBED PROPERTIES AND STREAM DIMENSIONS

 SEGMENT     BED HYD. COND.      BED THICKNESS     ELEV.-TOP OF BED     WIDTH OF STREAM     DEPTH OF STREAM    STREAM ROUGHNESS
    No.     UPPER     LOWER     UPPER     LOWER     UPPER     LOWER     UPPER     LOWER     UPPER     LOWER   CHANNEL      BANK

     1  3.500E-07 3.500E-07                                                                                 3.000E-02 4.000E-02

  EIGHT POINT CROSS-SECTION DATA FOR SEGMENTS WITH ICALC = 2
    X VALUES X VALUES START FROM LEFT SIDE LOOKING DOWNSTREAM

     SEGMENT NO.        X1        X2        X3        X4        X5        X6        X7        X8
            1      0.000E+00 2.000E+00 4.000E+00 6.000E+00 8.000E+00 1.000E+01 1.200E+01 1.400E+01

    Z VALUES ARE RELATIVE TO STREAMBED ELEVATION

     SEGMENT NO.          Z1        Z2        Z3        Z4        Z5        Z6        Z7        Z8
            1      6.000E+00 4.500E+00 3.500E+00 0.000E+00 3.000E-01 3.500E+00 4.500E+00 6.000E+00
 
 SOLVING FOR HEAD 

 NO OUTPUT CONTROL FOR STRESS PERIOD     47   TIME STEP     1
 
 SOLVING FOR HEAD 

 NO OUTPUT CONTROL FOR STRESS PERIOD     47   TIME STEP     2
 
 SOLVING FOR HEAD 

 NO OUTPUT CONTROL FOR STRESS PERIOD     47   TIME STEP     3
 
 SOLVING FOR HEAD 

 NO OUTPUT CONTROL FOR STRESS PERIOD     47   TIME STEP     4
 
 SOLVING FOR HEAD 

 NO OUTPUT CONTROL FOR STRESS PERIOD     47   TIME STEP     5
 
 SOLVING FOR HEAD 

 NO OUTPUT CONTROL FOR STRESS PERIOD     47   TIME STEP     6
 
 SOLVING FOR HEAD 

 NO OUTPUT CONTROL FOR STRESS PERIOD     47   TIME STEP     7
 
 SOLVING FOR HEAD 

 NO OUTPUT CONTROL FOR STRESS PERIOD     47   TIME STEP     8
 
 SOLVING FOR HEAD 

 NO OUTPUT CONTROL FOR STRESS PERIOD     47   TIME STEP     9
 
 SOLVING FOR HEAD 

 NO OUTPUT CONTROL FOR STRESS PERIOD     47   TIME STEP    10
 
 SOLVING FOR HEAD 

 NO OUTPUT CONTROL FOR STRESS PERIOD     47   TIME STEP    11
 
 SOLVING FOR HEAD 

 NO OUTPUT CONTROL FOR STRESS PERIOD     47   TIME STEP    12
 
 SOLVING FOR HEAD 

 NO OUTPUT CONTROL FOR STRESS PERIOD     47   TIME STEP    13
 
 SOLVING FOR HEAD 

 NO OUTPUT CONTROL FOR STRESS PERIOD     47   TIME STEP    14
 
 SOLVING FOR HEAD 

 NO OUTPUT CONTROL FOR STRESS PERIOD     47   TIME STEP    15
 
 SOLVING FOR HEAD 

 NO OUTPUT CONTROL FOR STRESS PERIOD     47   TIME STEP    16
 
 SOLVING FOR HEAD 

 NO OUTPUT CONTROL FOR STRESS PERIOD     47   TIME STEP    17
 
 SOLVING FOR HEAD 

 NO OUTPUT CONTROL FOR STRESS PERIOD     47   TIME STEP    18
 
 SOLVING FOR HEAD 

 NO OUTPUT CONTROL FOR STRESS PERIOD     47   TIME STEP    19
 
 SOLVING FOR HEAD 

 NO OUTPUT CONTROL FOR STRESS PERIOD     47   TIME STEP    20
 
 SOLVING FOR HEAD 

 NO OUTPUT CONTROL FOR STRESS PERIOD     47   TIME STEP    21
 
 SOLVING FOR HEAD 

 NO OUTPUT CONTROL FOR STRESS PERIOD     47   TIME STEP    22
 
 SOLVING FOR HEAD 

 NO OUTPUT CONTROL FOR STRESS PERIOD     47   TIME STEP    23
 
 SOLVING FOR HEAD 

 NO OUTPUT CONTROL FOR STRESS PERIOD     47   TIME STEP    24
 
 SOLVING FOR HEAD 

 NO OUTPUT CONTROL FOR STRESS PERIOD     47   TIME STEP    25
 
 SOLVING FOR HEAD 

 NO OUTPUT CONTROL FOR STRESS PERIOD     47   TIME STEP    26
 
 SOLVING FOR HEAD 

 NO OUTPUT CONTROL FOR STRESS PERIOD     47   TIME STEP    27
 
 SOLVING FOR HEAD 

 NO OUTPUT CONTROL FOR STRESS PERIOD     47   TIME STEP    28
 
 SOLVING FOR HEAD 

 NO OUTPUT CONTROL FOR STRESS PERIOD     47   TIME STEP    29
 
 SOLVING FOR HEAD 

 NO OUTPUT CONTROL FOR STRESS PERIOD     47   TIME STEP    30



 STREAM LISTING     PERIOD     47   STEP       30

 LAYER ROW COL. STREAM  RCH.   FLOW INTO    STREAM     FLOW OUT OF   OVRLND.    DIRECT     STREAM      STREAM      STREAM     STREAM  STREAMBED   FLOW TO   CHNG. UNSAT. 
                SEG.NO.  NO.   STRM. RCH.    LOSS       STRM. RCH.   RUNOFF     PRECIP       ET         HEAD        DEPTH      WIDTH  CONDCTNC.   WAT. TAB.

   1    4    1     1     1    2.1000E+00  9.2186E-04   2.0991E+00  0.000E+00  0.000E+00  0.000E+00  1.40926E+02  1.076E+00  3.100E+00  5.848E-04  9.567E-04 -3.482E-05
   1    4    2     1     2    2.0991E+00  9.2159E-04   2.0982E+00  0.000E+00  0.000E+00  0.000E+00  1.40626E+02  1.076E+00  3.100E+00  5.848E-04  9.533E-04 -3.174E-05
   1    4    3     1     3    2.0982E+00  9.2133E-04   2.0972E+00  0.000E+00  0.000E+00  0.000E+00  1.40326E+02  1.076E+00  3.100E+00  5.847E-04  9.526E-04 -3.128E-05
   1    4    4     1     4    2.0972E+00  9.2106E-04   2.0963E+00  0.000E+00  0.000E+00  0.000E+00  1.40026E+02  1.076E+00  3.099E+00  5.846E-04  9.523E-04 -3.119E-05
   1    4    5     1     5    2.0963E+00  9.2079E-04   2.0954E+00  0.000E+00  0.000E+00  0.000E+00  1.39725E+02  1.075E+00  3.099E+00  5.845E-04  9.519E-04 -3.110E-05
   1    4    6     1     6    2.0954E+00  9.2052E-04   2.0945E+00  0.000E+00  0.000E+00  0.000E+00  1.39425E+02  1.075E+00  3.099E+00  5.844E-04  9.515E-04 -3.099E-05
   1    4    7     1     7    2.0945E+00  9.2026E-04   2.0936E+00  0.000E+00  0.000E+00  0.000E+00  1.39125E+02  1.075E+00  3.098E+00  5.844E-04  9.511E-04 -3.087E-05
   1    4    8     1     8    2.0936E+00  9.1999E-04   2.0926E+00  0.000E+00  0.000E+00  0.000E+00  1.38825E+02  1.075E+00  3.098E+00  5.843E-04  9.507E-04 -3.076E-05
   1    4    9     1     9    2.0926E+00  9.1972E-04   2.0917E+00  0.000E+00  0.000E+00  0.000E+00  1.38524E+02  1.074E+00  3.098E+00  5.842E-04  9.504E-04 -3.063E-05
   1    4   10     1    10    2.0917E+00  9.1946E-04   2.0908E+00  0.000E+00  0.000E+00  0.000E+00  1.38224E+02  1.074E+00  3.098E+00  5.841E-04  9.500E-04 -3.050E-05
   1    4   11     1    11    2.0908E+00  9.1919E-04   2.0899E+00  0.000E+00  0.000E+00  0.000E+00  1.37924E+02  1.074E+00  3.097E+00  5.840E-04  9.496E-04 -3.037E-05
   1    4   12     1    12    2.0899E+00  9.1892E-04   2.0890E+00  0.000E+00  0.000E+00  0.000E+00  1.37624E+02  1.074E+00  3.097E+00  5.840E-04  9.492E-04 -3.023E-05
   1    4   13     1    13    2.0890E+00  9.1866E-04   2.0880E+00  0.000E+00  0.000E+00  0.000E+00  1.37323E+02  1.073E+00  3.097E+00  5.839E-04  9.488E-04 -3.009E-05
   1    4   14     1    14    2.0880E+00  9.1839E-04   2.0871E+00  0.000E+00  0.000E+00  0.000E+00  1.37023E+02  1.073E+00  3.096E+00  5.838E-04  9.483E-04 -2.995E-05
   1    4   15     1    15    2.0871E+00  9.1813E-04   2.0862E+00  0.000E+00  0.000E+00  0.000E+00  1.36723E+02  1.073E+00  3.096E+00  5.837E-04  9.479E-04 -2.979E-05
   1    4   16     1    16    2.0862E+00  9.1786E-04   2.0853E+00  0.000E+00  0.000E+00  0.000E+00  1.36423E+02  1.073E+00  3.096E+00  5.836E-04  9.475E-04 -2.964E-05
   1    4   17     1    17    2.0853E+00  9.1759E-04   2.0844E+00  0.000E+00  0.000E+00  0.000E+00  1.36122E+02  1.072E+00  3.096E+00  5.836E-04  9.471E-04 -2.948E-05
   1    4   18     1    18    2.0844E+00  9.1733E-04   2.0834E+00  0.000E+00  0.000E+00  0.000E+00  1.35822E+02  1.072E+00  3.095E+00  5.835E-04  9.466E-04 -2.931E-05
   1    4   19     1    19    2.0834E+00  9.1706E-04   2.0825E+00  0.000E+00  0.000E+00  0.000E+00  1.35522E+02  1.072E+00  3.095E+00  5.834E-04  9.462E-04 -2.914E-05
   1    4   20     1    20    2.0825E+00  9.1679E-04   2.0816E+00  0.000E+00  0.000E+00  0.000E+00  1.35222E+02  1.072E+00  3.095E+00  5.833E-04  9.458E-04 -2.896E-05
   1    4   21     1    21    2.0816E+00  9.1653E-04   2.0807E+00  0.000E+00  0.000E+00  0.000E+00  1.34921E+02  1.071E+00  3.094E+00  5.833E-04  9.453E-04 -2.878E-05
   1    4   22     1    22    2.0807E+00  9.1626E-04   2.0798E+00  0.000E+00  0.000E+00  0.000E+00  1.34621E+02  1.071E+00  3.094E+00  5.832E-04  9.449E-04 -2.859E-05
   1    4   23     1    23    2.0798E+00  9.1600E-04   2.0789E+00  0.000E+00  0.000E+00  0.000E+00  1.34321E+02  1.071E+00  3.094E+00  5.831E-04  9.444E-04 -2.840E-05
   1    4   24     1    24    2.0789E+00  9.1573E-04   2.0779E+00  0.000E+00  0.000E+00  0.000E+00  1.34021E+02  1.071E+00  3.094E+00  5.830E-04  9.439E-04 -2.821E-05
   1    4   25     1    25    2.0779E+00  9.1547E-04   2.0770E+00  0.000E+00  0.000E+00  0.000E+00  1.33720E+02  1.070E+00  3.093E+00  5.829E-04  9.435E-04 -2.801E-05
   1    4   26     1    26    2.0770E+00  9.1520E-04   2.0761E+00  0.000E+00  0.000E+00  0.000E+00  1.33420E+02  1.070E+00  3.093E+00  5.829E-04  9.430E-04 -2.781E-05
   1    4   27     1    27    2.0761E+00  9.1493E-04   2.0752E+00  0.000E+00  0.000E+00  0.000E+00  1.33120E+02  1.070E+00  3.093E+00  5.828E-04  9.425E-04 -2.760E-05
   1    4   28     1    28    2.0752E+00  9.1467E-04   2.0743E+00  0.000E+00  0.000E+00  0.000E+00  1.32820E+02  1.070E+00  3.092E+00  5.827E-04  9.421E-04 -2.740E-05
   1    4   29     1    29    2.0743E+00  9.1440E-04   2.0734E+00  0.000E+00  0.000E+00  0.000E+00  1.32519E+02  1.069E+00  3.092E+00  5.826E-04  9.416E-04 -2.719E-05
   1    4   30     1    30    2.0734E+00  9.1414E-04   2.0725E+00  0.000E+00  0.000E+00  0.000E+00  1.32219E+02  1.069E+00  3.092E+00  5.825E-04  9.411E-04 -2.698E-05
   1    4   31     1    31    2.0725E+00  9.1387E-04   2.0715E+00  0.000E+00  0.000E+00  0.000E+00  1.31919E+02  1.069E+00  3.091E+00  5.825E-04  9.406E-04 -2.676E-05
   1    4   32     1    32    2.0715E+00  9.1361E-04   2.0706E+00  0.000E+00  0.000E+00  0.000E+00  1.31619E+02  1.069E+00  3.091E+00  5.824E-04  9.402E-04 -2.655E-05
   1    4   33     1    33    2.0706E+00  9.1334E-04   2.0697E+00  0.000E+00  0.000E+00  0.000E+00  1.31319E+02  1.069E+00  3.091E+00  5.823E-04  9.397E-04 -2.633E-05
   1    4   34     1    34    2.0697E+00  9.1308E-04   2.0688E+00  0.000E+00  0.000E+00  0.000E+00  1.31018E+02  1.068E+00  3.091E+00  5.822E-04  9.392E-04 -2.612E-05
   1    4   35     1    35    2.0688E+00  9.1281E-04   2.0679E+00  0.000E+00  0.000E+00  0.000E+00  1.30718E+02  1.068E+00  3.090E+00  5.821E-04  9.387E-04 -2.590E-05
   1    4   36     1    36    2.0679E+00  9.1255E-04   2.0670E+00  0.000E+00  0.000E+00  0.000E+00  1.30418E+02  1.068E+00  3.090E+00  5.821E-04  9.382E-04 -2.569E-05
   1    4   37     1    37    2.0670E+00  9.1228E-04   2.0661E+00  0.000E+00  0.000E+00  0.000E+00  1.30118E+02  1.068E+00  3.090E+00  5.820E-04  9.378E-04 -2.547E-05
   1    4   38     1    38    2.0661E+00  9.1202E-04   2.0652E+00  0.000E+00  0.000E+00  0.000E+00  1.29817E+02  1.067E+00  3.089E+00  5.819E-04  9.373E-04 -2.525E-05
   1    4   39     1    39    2.0652E+00  9.1175E-04   2.0642E+00  0.000E+00  0.000E+00  0.000E+00  1.29517E+02  1.067E+00  3.089E+00  5.818E-04  9.368E-04 -2.504E-05
   1    4   40     1    40    2.0642E+00  9.1149E-04   2.0633E+00  0.000E+00  0.000E+00  0.000E+00  1.29217E+02  1.067E+00  3.089E+00  5.817E-04  9.363E-04 -2.482E-05
   1    4   41     1    41    2.0633E+00  9.1122E-04   2.0624E+00  0.000E+00  0.000E+00  0.000E+00  1.28917E+02  1.067E+00  3.089E+00  5.817E-04  9.356E-04 -2.442E-05
   1    4   42     1    42    2.0624E+00  9.1096E-04   2.0615E+00  0.000E+00  0.000E+00  0.000E+00  1.28616E+02  1.066E+00  3.088E+00  5.816E-04  9.336E-04 -2.266E-05
   1    4   43     1    43    2.0615E+00  9.1069E-04   2.0606E+00  0.000E+00  0.000E+00  0.000E+00  1.28316E+02  1.066E+00  3.088E+00  5.815E-04  9.322E-04 -2.147E-05
   1    4   44     1    44    2.0606E+00  9.1043E-04   2.0597E+00  0.000E+00  0.000E+00  0.000E+00  1.28016E+02  1.066E+00  3.088E+00  5.814E-04  9.313E-04 -2.086E-05
   1    4   45     1    45    2.0597E+00  9.1017E-04   2.0588E+00  0.000E+00  0.000E+00  0.000E+00  1.27716E+02  1.066E+00  3.087E+00  5.814E-04  9.310E-04 -2.084E-05
   1    4   46     1    46    2.0588E+00  9.0990E-04   2.0579E+00  0.000E+00  0.000E+00  0.000E+00  1.27415E+02  1.065E+00  3.087E+00  5.813E-04  9.313E-04 -2.142E-05
   1    4   47     1    47    2.0579E+00  9.0964E-04   2.0570E+00  0.000E+00  0.000E+00  0.000E+00  1.27115E+02  1.065E+00  3.087E+00  5.812E-04  9.322E-04 -2.260E-05
   1    4   48     1    48    2.0570E+00  9.0937E-04   2.0561E+00  0.000E+00  0.000E+00  0.000E+00  1.26815E+02  1.065E+00  3.087E+00  5.811E-04  9.326E-04 -2.320E-05
   1    4   49     1    49    2.0561E+00  9.0911E-04   2.0551E+00  0.000E+00  0.000E+00  0.000E+00  1.26515E+02  1.065E+00  3.086E+00  5.810E-04  9.321E-04 -2.301E-05
   1    4   50     1    50    2.0551E+00  9.0884E-04   2.0542E+00  0.000E+00  0.000E+00  0.000E+00  1.26214E+02  1.064E+00  3.086E+00  5.810E-04  9.317E-04 -2.283E-05
   1    4   51     1    51    2.0542E+00  9.0858E-04   2.0533E+00  0.000E+00  0.000E+00  0.000E+00  1.25914E+02  1.064E+00  3.086E+00  5.809E-04  9.312E-04 -2.265E-05
   1    4   52     1    52    2.0533E+00  9.0832E-04   2.0524E+00  0.000E+00  0.000E+00  0.000E+00  1.25614E+02  1.064E+00  3.085E+00  5.808E-04  9.308E-04 -2.247E-05
   1    4   53     1    53    2.0524E+00  9.0805E-04   2.0515E+00  0.000E+00  0.000E+00  0.000E+00  1.25314E+02  1.064E+00  3.085E+00  5.807E-04  9.303E-04 -2.230E-05
   1    4   54     1    54    2.0515E+00  9.0779E-04   2.0506E+00  0.000E+00  0.000E+00  0.000E+00  1.25013E+02  1.063E+00  3.085E+00  5.806E-04  9.299E-04 -2.213E-05
   1    4   55     1    55    2.0506E+00  9.0752E-04   2.0497E+00  0.000E+00  0.000E+00  0.000E+00  1.24713E+02  1.063E+00  3.085E+00  5.806E-04  9.295E-04 -2.197E-05
   1    4   56     1    56    2.0497E+00  9.0726E-04   2.0488E+00  0.000E+00  0.000E+00  0.000E+00  1.24413E+02  1.063E+00  3.084E+00  5.805E-04  9.291E-04 -2.181E-05
   1    4   57     1    57    2.0488E+00  9.0700E-04   2.0479E+00  0.000E+00  0.000E+00  0.000E+00  1.24113E+02  1.063E+00  3.084E+00  5.804E-04  9.287E-04 -2.165E-05
   1    4   58     1    58    2.0479E+00  9.0673E-04   2.0470E+00  0.000E+00  0.000E+00  0.000E+00  1.23812E+02  1.062E+00  3.084E+00  5.803E-04  9.282E-04 -2.151E-05
   1    4   59     1    59    2.0470E+00  9.0647E-04   2.0461E+00  0.000E+00  0.000E+00  0.000E+00  1.23512E+02  1.062E+00  3.083E+00  5.802E-04  9.278E-04 -2.136E-05
   1    4   60     1    60    2.0461E+00  9.0621E-04   2.0452E+00  0.000E+00  0.000E+00  0.000E+00  1.23212E+02  1.062E+00  3.083E+00  5.802E-04  9.274E-04 -2.122E-05
   1    4   61     1    61    2.0452E+00  9.0594E-04   2.0443E+00  0.000E+00  0.000E+00  0.000E+00  1.22912E+02  1.062E+00  3.083E+00  5.801E-04  9.270E-04 -2.109E-05
   1    4   62     1    62    2.0443E+00  9.0568E-04   2.0433E+00  0.000E+00  0.000E+00  0.000E+00  1.22611E+02  1.061E+00  3.082E+00  5.800E-04  9.266E-04 -2.096E-05
   1    4   63     1    63    2.0433E+00  9.0542E-04   2.0424E+00  0.000E+00  0.000E+00  0.000E+00  1.22311E+02  1.061E+00  3.082E+00  5.799E-04  9.262E-04 -2.083E-05
   1    4   64     1    64    2.0424E+00  9.0515E-04   2.0415E+00  0.000E+00  0.000E+00  0.000E+00  1.22011E+02  1.061E+00  3.082E+00  5.799E-04  9.259E-04 -2.071E-05
   1    4   65     1    65    2.0415E+00  9.0489E-04   2.0406E+00  0.000E+00  0.000E+00  0.000E+00  1.21711E+02  1.061E+00  3.082E+00  5.798E-04  9.255E-04 -2.059E-05
   1    4   66     1    66    2.0406E+00  9.0463E-04   2.0397E+00  0.000E+00  0.000E+00  0.000E+00  1.21411E+02  1.061E+00  3.081E+00  5.797E-04  9.251E-04 -2.047E-05
   1    4   67     1    67    2.0397E+00  9.0436E-04   2.0388E+00  0.000E+00  0.000E+00  0.000E+00  1.21110E+02  1.060E+00  3.081E+00  5.796E-04  9.265E-04 -2.214E-05
   1    4   68     1    68    2.0388E+00  9.0410E-04   2.0379E+00  0.000E+00  0.000E+00  0.000E+00  1.20810E+02  1.060E+00  3.081E+00  5.795E-04  9.299E-04 -2.576E-05
   1    4   69     1    69    2.0379E+00  9.0384E-04   2.0370E+00  0.000E+00  0.000E+00  0.000E+00  1.20510E+02  1.060E+00  3.080E+00  5.795E-04  9.314E-04 -2.760E-05
   1    4   70     1    70    2.0370E+00  9.0357E-04   2.0361E+00  0.000E+00  0.000E+00  0.000E+00  1.20210E+02  1.060E+00  3.080E+00  5.794E-04  9.310E-04 -2.747E-05
   1    4   71     1    71    2.0361E+00  9.0331E-04   2.0352E+00  0.000E+00  0.000E+00  0.000E+00  1.19909E+02  1.059E+00  3.080E+00  5.793E-04  9.307E-04 -2.735E-05
   1    4   72     1    72    2.0352E+00  9.0305E-04   2.0343E+00  0.000E+00  0.000E+00  0.000E+00  1.19609E+02  1.059E+00  3.080E+00  5.792E-04  9.303E-04 -2.722E-05
   1    4   73     1    73    2.0343E+00  9.0279E-04   2.0334E+00  0.000E+00  0.000E+00  0.000E+00  1.19309E+02  1.059E+00  3.079E+00  5.791E-04  9.299E-04 -2.711E-05
   1    4   74     1    74    2.0334E+00  9.0252E-04   2.0325E+00  0.000E+00  0.000E+00  0.000E+00  1.19009E+02  1.059E+00  3.079E+00  5.791E-04  9.295E-04 -2.700E-05
   1    4   75     1    75    2.0325E+00  9.0226E-04   2.0316E+00  0.000E+00  0.000E+00  0.000E+00  1.18708E+02  1.058E+00  3.079E+00  5.790E-04  9.292E-04 -2.690E-05
   1    4   76     1    76    2.0316E+00  9.0200E-04   2.0307E+00  0.000E+00  0.000E+00  0.000E+00  1.18408E+02  1.058E+00  3.078E+00  5.789E-04  9.288E-04 -2.680E-05
   1    4   77     1    77    2.0307E+00  9.0174E-04   2.0298E+00  0.000E+00  0.000E+00  0.000E+00  1.18108E+02  1.058E+00  3.078E+00  5.788E-04  9.285E-04 -2.672E-05
   1    4   78     1    78    2.0298E+00  9.0147E-04   2.0289E+00  0.000E+00  0.000E+00  0.000E+00  1.17808E+02  1.058E+00  3.078E+00  5.787E-04  9.281E-04 -2.666E-05
   1    4   79     1    79    2.0289E+00  9.0121E-04   2.0280E+00  0.000E+00  0.000E+00  0.000E+00  1.17507E+02  1.057E+00  3.078E+00  5.787E-04  9.278E-04 -2.661E-05
   1    4   80     1    80    2.0280E+00  9.0095E-04   2.0271E+00  0.000E+00  0.000E+00  0.000E+00  1.17207E+02  1.057E+00  3.077E+00  5.786E-04  9.275E-04 -2.658E-05
   1    4   81     1    81    2.0271E+00  9.0069E-04   2.0262E+00  0.000E+00  0.000E+00  0.000E+00  1.16907E+02  1.057E+00  3.077E+00  5.785E-04  9.273E-04 -2.657E-05
   1    4   82     1    82    2.0262E+00  9.0043E-04   2.0253E+00  0.000E+00  0.000E+00  0.000E+00  1.16607E+02  1.057E+00  3.077E+00  5.784E-04  9.270E-04 -2.659E-05
   1    4   83     1    83    2.0253E+00  9.0016E-04   2.0244E+00  0.000E+00  0.000E+00  0.000E+00  1.16306E+02  1.056E+00  3.076E+00  5.784E-04  9.268E-04 -2.665E-05
   1    4   84     1    84    2.0244E+00  8.9990E-04   2.0235E+00  0.000E+00  0.000E+00  0.000E+00  1.16006E+02  1.056E+00  3.076E+00  5.783E-04  9.266E-04 -2.673E-05
   1    4   85     1    85    2.0235E+00  8.9964E-04   2.0226E+00  0.000E+00  0.000E+00  0.000E+00  1.15706E+02  1.056E+00  3.076E+00  5.782E-04  9.316E-04 -3.201E-05
   1    4   86     1    86    2.0226E+00  8.9938E-04   2.0217E+00  0.000E+00  0.000E+00  0.000E+00  1.15406E+02  1.056E+00  3.076E+00  5.781E-04  9.344E-04 -3.505E-05
   1    4   87     1    87    2.0217E+00  8.9912E-04   2.0208E+00  0.000E+00  0.000E+00  0.000E+00  1.15105E+02  1.055E+00  3.075E+00  5.780E-04  9.344E-04 -3.527E-05
   1    4   88     1    88    2.0208E+00  8.9885E-04   2.0199E+00  0.000E+00  0.000E+00  0.000E+00  1.14805E+02  1.055E+00  3.075E+00  5.780E-04  9.344E-04 -3.556E-05
   1    4   89     1    89    2.0199E+00  8.9859E-04   2.0190E+00  0.000E+00  0.000E+00  0.000E+00  1.14505E+02  1.055E+00  3.075E+00  5.779E-04  9.345E-04 -3.592E-05
   1    4   90     1    90    2.0190E+00  8.9833E-04   2.0181E+00  0.000E+00  0.000E+00  0.000E+00  1.14205E+02  1.055E+00  3.074E+00  5.778E-04  9.347E-04 -3.635E-05
   1    4   91     1    91    2.0181E+00  8.9807E-04   2.0172E+00  0.000E+00  0.000E+00  0.000E+00  1.13904E+02  1.054E+00  3.074E+00  5.777E-04  9.349E-04 -3.687E-05
   1    4   92     1    92    2.0172E+00  8.9781E-04   2.0163E+00  0.000E+00  0.000E+00  0.000E+00  1.13604E+02  1.054E+00  3.074E+00  5.776E-04  9.353E-04 -3.747E-05
   1    4   93     1    93    2.0163E+00  8.9755E-04   2.0154E+00  0.000E+00  0.000E+00  0.000E+00  1.13304E+02  1.054E+00  3.074E+00  5.776E-04  9.357E-04 -3.814E-05
   1    4   94     1    94    2.0154E+00  8.9728E-04   2.0145E+00  0.000E+00  0.000E+00  0.000E+00  1.13004E+02  1.054E+00  3.073E+00  5.775E-04  9.362E-04 -3.887E-05
   1    4   95     1    95    2.0145E+00  8.9702E-04   2.0136E+00  0.000E+00  0.000E+00  0.000E+00  1.12704E+02  1.054E+00  3.073E+00  5.774E-04  9.413E-04 -4.423E-05
   1    4   96     1    96    2.0136E+00  8.9676E-04   2.0127E+00  0.000E+00  0.000E+00  0.000E+00  1.12403E+02  1.053E+00  3.073E+00  5.773E-04  9.450E-04 -4.820E-05
   1    4   97     1    97    2.0127E+00  8.9650E-04   2.0118E+00  0.000E+00  0.000E+00  0.000E+00  1.12103E+02  1.053E+00  3.072E+00  5.773E-04  9.454E-04 -4.888E-05
   1    4   98     1    98    2.0118E+00  8.9624E-04   2.0109E+00  0.000E+00  0.000E+00  0.000E+00  1.11803E+02  1.053E+00  3.072E+00  5.772E-04  9.457E-04 -4.946E-05
   1    4   99     1    99    2.0109E+00  8.9598E-04   2.0100E+00  0.000E+00  0.000E+00  0.000E+00  1.11503E+02  1.053E+00  3.072E+00  5.771E-04  9.459E-04 -4.991E-05
   1    4  100     1   100    2.0100E+00  8.9572E-04   2.0091E+00  0.000E+00  0.000E+00  0.000E+00  1.11202E+02  1.052E+00  3.072E+00  5.770E-04  9.460E-04 -5.028E-05



1
  VOLUMETRIC BUDGET FOR UNSATURATED ZONE BENEATH STREAMS AT END OF TIME STEP    30 STRESS PERIOD  47
  ------------------------------------------------------------------------------------------------

    CUMULATIVE VOLUMES             L**3    RATES FOR THIS TIME STEP         L**3/T
    ------------------                     ------------------------


          STREAM LOSS =     35199029.3476            STREAM LOSS =        9.0874E-02
    CHANGE IN STORAGE =       367380.5842      CHANGE IN STORAGE =       -2.8457E-03
       RECHARGE TO GW =     34836995.8651         RECHARGE TO GW =        9.3719E-02

             TOTAL IN =     35199029.3476               TOTAL IN =        9.3719E-02

            TOTAL OUT =     35204376.4493              TOTAL OUT =        9.3719E-02

             IN - OUT =        -5347.1017               IN - OUT =            0.0000

  PERCENT DISCREPANCY =           -0.00      PERCENT DISCREPANCY =             0.00






  -------------------------------------------------------------------------------------
  VOLUMETRIC BUDGET FOR ENTIRE MODEL AT END OF TIME STEP   30 IN STRESS PERIOD     47
  -------------------------------------------------------------------------------------

     CUMULATIVE VOLUMES      L**3       RATES FOR THIS TIME STEP      L**3/T
     ------------------                 ------------------------

           IN:                                      IN:
           ---                                      ---
             STORAGE =    17382155.2122               STORAGE =       9.8426E-02
       CONSTANT HEAD =           0.0000         CONSTANT HEAD =           0.0000
     HEAD DEP BOUNDS =           0.0000       HEAD DEP BOUNDS =           0.0000
      STREAM LEAKAGE =    34836995.8651        STREAM LEAKAGE =       9.3719E-02

            TOTAL IN =    52219151.0773              TOTAL IN =           0.1921

          OUT:                                     OUT:
          ----                                     ----
             STORAGE =    17087102.9995               STORAGE =           0.0000
       CONSTANT HEAD =           0.0000         CONSTANT HEAD =           0.0000
     HEAD DEP BOUNDS =    35132052.3783       HEAD DEP BOUNDS =           0.1921
      STREAM LEAKAGE =           0.0000        STREAM LEAKAGE =           0.0000

           TOTAL OUT =    52219155.3778             TOTAL OUT =           0.1921

            IN - OUT =          -4.3005              IN - OUT =      -2.7656E-07

 PERCENT DISCREPANCY =          -0.00     PERCENT DISCREPANCY =          -0.00


          TIME SUMMARY AT END OF TIME STEP    30 IN STRESS PERIOD     47
                    SECONDS     MINUTES      HOURS       DAYS        YEARS
                    -----------------------------------------------------------
   TIME STEP LENGTH 2.49961E+05  4166.0      69.434      2.8931     7.92080E-03
 STRESS PERIOD TIME 2.59200E+06  43200.      720.00      30.000     8.21355E-02
         TOTAL TIME 1.21824E+08 2.03040E+06  33840.      1410.0      3.8604    
 
1
                            STRESS PERIOD NO.     48, LENGTH =   2592000.    
                            -----------------------------------------------

                              NUMBER OF TIME STEPS =    30

                               MULTIPLIER FOR DELT =     1.100

                            INITIAL TIME STEP SIZE =   15757.41    

 REUSING NON-PARAMETER GHB CELLS FROM LAST STRESS PERIOD

      7 GHB CELLS



 CLASSIFICATION & COUNT OF STREAM SEGMENTS BASED ON SOURCE OF INFLOW:

                HEADWATER     DIVERSION     RECEIVES TRIBUTARY FLOW
                ---------     ---------     -----------------------
                     1              0               0



                    INPUT DATA FOR EACH STREAM SEGMENT
 ---------------------------------------------------------------------------------------------

 SEGMENT    SEG.     INFLOW   OVERLAND   STREAM    STREAM   ICALC  OUTFLOW  DIVERSION PRIORITY
    NO.    LENGTH     RATE     RUNOFF      ET       PPT.    METH.  TO SEG.  FROM SEG.    NO.

      1  2.000E+04 4.200E+00 0.000E+00 0.000E+00 0.000E+00    2        0        0        0


         STREAMBED PROPERTIES AND STREAM DIMENSIONS

 SEGMENT     BED HYD. COND.      BED THICKNESS     ELEV.-TOP OF BED     WIDTH OF STREAM     DEPTH OF STREAM    STREAM ROUGHNESS
    No.     UPPER     LOWER     UPPER     LOWER     UPPER     LOWER     UPPER     LOWER     UPPER     LOWER   CHANNEL      BANK

     1  3.500E-07 3.500E-07                                                                                 3.000E-02 4.000E-02

  EIGHT POINT CROSS-SECTION DATA FOR SEGMENTS WITH ICALC = 2
    X VALUES X VALUES START FROM LEFT SIDE LOOKING DOWNSTREAM

     SEGMENT NO.        X1        X2        X3        X4        X5        X6        X7        X8
            1      0.000E+00 2.000E+00 4.000E+00 6.000E+00 8.000E+00 1.000E+01 1.200E+01 1.400E+01

    Z VALUES ARE RELATIVE TO STREAMBED ELEVATION

     SEGMENT NO.          Z1        Z2        Z3        Z4        Z5        Z6        Z7        Z8
            1      6.000E+00 4.500E+00 3.500E+00 0.000E+00 3.000E-01 3.500E+00 4.500E+00 6.000E+00
 
 SOLVING FOR HEAD 

 NO OUTPUT CONTROL FOR STRESS PERIOD     48   TIME STEP     1
 
 SOLVING FOR HEAD 

 NO OUTPUT CONTROL FOR STRESS PERIOD     48   TIME STEP     2
 
 SOLVING FOR HEAD 

 NO OUTPUT CONTROL FOR STRESS PERIOD     48   TIME STEP     3
 
 SOLVING FOR HEAD 

 NO OUTPUT CONTROL FOR STRESS PERIOD     48   TIME STEP     4
 
 SOLVING FOR HEAD 

 NO OUTPUT CONTROL FOR STRESS PERIOD     48   TIME STEP     5
 
 SOLVING FOR HEAD 

 NO OUTPUT CONTROL FOR STRESS PERIOD     48   TIME STEP     6
 
 SOLVING FOR HEAD 

 NO OUTPUT CONTROL FOR STRESS PERIOD     48   TIME STEP     7
 
 SOLVING FOR HEAD 

 NO OUTPUT CONTROL FOR STRESS PERIOD     48   TIME STEP     8
 
 SOLVING FOR HEAD 

 NO OUTPUT CONTROL FOR STRESS PERIOD     48   TIME STEP     9
 
 SOLVING FOR HEAD 

 NO OUTPUT CONTROL FOR STRESS PERIOD     48   TIME STEP    10
 
 SOLVING FOR HEAD 

 NO OUTPUT CONTROL FOR STRESS PERIOD     48   TIME STEP    11
 
 SOLVING FOR HEAD 

 NO OUTPUT CONTROL FOR STRESS PERIOD     48   TIME STEP    12
 
 SOLVING FOR HEAD 

 NO OUTPUT CONTROL FOR STRESS PERIOD     48   TIME STEP    13
 
 SOLVING FOR HEAD 

 NO OUTPUT CONTROL FOR STRESS PERIOD     48   TIME STEP    14
 
 SOLVING FOR HEAD 

 NO OUTPUT CONTROL FOR STRESS PERIOD     48   TIME STEP    15
 
 SOLVING FOR HEAD 

 NO OUTPUT CONTROL FOR STRESS PERIOD     48   TIME STEP    16
 
 SOLVING FOR HEAD 

 NO OUTPUT CONTROL FOR STRESS PERIOD     48   TIME STEP    17
 
 SOLVING FOR HEAD 

 NO OUTPUT CONTROL FOR STRESS PERIOD     48   TIME STEP    18
 
 SOLVING FOR HEAD 

 NO OUTPUT CONTROL FOR STRESS PERIOD     48   TIME STEP    19
 
 SOLVING FOR HEAD 

 NO OUTPUT CONTROL FOR STRESS PERIOD     48   TIME STEP    20
 
 SOLVING FOR HEAD 

 NO OUTPUT CONTROL FOR STRESS PERIOD     48   TIME STEP    21
 
 SOLVING FOR HEAD 

 NO OUTPUT CONTROL FOR STRESS PERIOD     48   TIME STEP    22
 
 SOLVING FOR HEAD 

 NO OUTPUT CONTROL FOR STRESS PERIOD     48   TIME STEP    23
 
 SOLVING FOR HEAD 

 NO OUTPUT CONTROL FOR STRESS PERIOD     48   TIME STEP    24
 
 SOLVING FOR HEAD 

 NO OUTPUT CONTROL FOR STRESS PERIOD     48   TIME STEP    25
 
 SOLVING FOR HEAD 

 NO OUTPUT CONTROL FOR STRESS PERIOD     48   TIME STEP    26
 
 SOLVING FOR HEAD 

 NO OUTPUT CONTROL FOR STRESS PERIOD     48   TIME STEP    27
 
 SOLVING FOR HEAD 

 NO OUTPUT CONTROL FOR STRESS PERIOD     48   TIME STEP    28
 
 SOLVING FOR HEAD 

 NO OUTPUT CONTROL FOR STRESS PERIOD     48   TIME STEP    29
 
 SOLVING FOR HEAD 

 NO OUTPUT CONTROL FOR STRESS PERIOD     48   TIME STEP    30



 STREAM LISTING     PERIOD     48   STEP       30

 LAYER ROW COL. STREAM  RCH.   FLOW INTO    STREAM     FLOW OUT OF   OVRLND.    DIRECT     STREAM      STREAM      STREAM     STREAM  STREAMBED   FLOW TO   CHNG. UNSAT. 
                SEG.NO.  NO.   STRM. RCH.    LOSS       STRM. RCH.   RUNOFF     PRECIP       ET         HEAD        DEPTH      WIDTH  CONDCTNC.   WAT. TAB.

   1    4    1     1     1    4.2000E+00  1.5035E-03   4.1985E+00  0.000E+00  0.000E+00  0.000E+00  1.41391E+02  1.541E+00  3.656E+00  7.366E-04  1.540E-03 -3.620E-05
   1    4    2     1     2    4.1985E+00  1.5031E-03   4.1970E+00  0.000E+00  0.000E+00  0.000E+00  1.41091E+02  1.541E+00  3.656E+00  7.365E-04  1.539E-03 -3.612E-05
   1    4    3     1     3    4.1970E+00  1.5027E-03   4.1955E+00  0.000E+00  0.000E+00  0.000E+00  1.40791E+02  1.541E+00  3.656E+00  7.364E-04  1.539E-03 -3.602E-05
   1    4    4     1     4    4.1955E+00  1.5023E-03   4.1940E+00  0.000E+00  0.000E+00  0.000E+00  1.40490E+02  1.540E+00  3.655E+00  7.363E-04  1.538E-03 -3.592E-05
   1    4    5     1     5    4.1940E+00  1.5019E-03   4.1925E+00  0.000E+00  0.000E+00  0.000E+00  1.40190E+02  1.540E+00  3.655E+00  7.362E-04  1.538E-03 -3.581E-05
   1    4    6     1     6    4.1925E+00  1.5015E-03   4.1910E+00  0.000E+00  0.000E+00  0.000E+00  1.39890E+02  1.540E+00  3.655E+00  7.361E-04  1.537E-03 -3.570E-05
   1    4    7     1     7    4.1910E+00  1.5011E-03   4.1895E+00  0.000E+00  0.000E+00  0.000E+00  1.39590E+02  1.540E+00  3.654E+00  7.360E-04  1.537E-03 -3.558E-05
   1    4    8     1     8    4.1895E+00  1.5007E-03   4.1880E+00  0.000E+00  0.000E+00  0.000E+00  1.39289E+02  1.539E+00  3.654E+00  7.359E-04  1.536E-03 -3.545E-05
   1    4    9     1     9    4.1880E+00  1.5003E-03   4.1865E+00  0.000E+00  0.000E+00  0.000E+00  1.38989E+02  1.539E+00  3.654E+00  7.358E-04  1.536E-03 -3.531E-05
   1    4   10     1    10    4.1865E+00  1.4999E-03   4.1850E+00  0.000E+00  0.000E+00  0.000E+00  1.38689E+02  1.539E+00  3.653E+00  7.357E-04  1.535E-03 -3.517E-05
   1    4   11     1    11    4.1850E+00  1.4995E-03   4.1835E+00  0.000E+00  0.000E+00  0.000E+00  1.38388E+02  1.538E+00  3.653E+00  7.356E-04  1.535E-03 -3.503E-05
   1    4   12     1    12    4.1835E+00  1.4991E-03   4.1820E+00  0.000E+00  0.000E+00  0.000E+00  1.38088E+02  1.538E+00  3.653E+00  7.355E-04  1.534E-03 -3.488E-05
   1    4   13     1    13    4.1820E+00  1.4987E-03   4.1805E+00  0.000E+00  0.000E+00  0.000E+00  1.37788E+02  1.538E+00  3.652E+00  7.354E-04  1.533E-03 -3.472E-05
   1    4   14     1    14    4.1805E+00  1.4983E-03   4.1790E+00  0.000E+00  0.000E+00  0.000E+00  1.37488E+02  1.538E+00  3.652E+00  7.354E-04  1.533E-03 -3.455E-05
   1    4   15     1    15    4.1790E+00  1.4979E-03   4.1775E+00  0.000E+00  0.000E+00  0.000E+00  1.37187E+02  1.537E+00  3.652E+00  7.353E-04  1.532E-03 -3.437E-05
   1    4   16     1    16    4.1775E+00  1.4975E-03   4.1760E+00  0.000E+00  0.000E+00  0.000E+00  1.36887E+02  1.537E+00  3.651E+00  7.352E-04  1.532E-03 -3.418E-05
   1    4   17     1    17    4.1760E+00  1.4971E-03   4.1745E+00  0.000E+00  0.000E+00  0.000E+00  1.36587E+02  1.537E+00  3.651E+00  7.351E-04  1.527E-03 -2.984E-05
   1    4   18     1    18    4.1745E+00  1.4967E-03   4.1730E+00  0.000E+00  0.000E+00  0.000E+00  1.36286E+02  1.536E+00  3.651E+00  7.350E-04  1.513E-03 -1.664E-05
   1    4   19     1    19    4.1730E+00  1.4963E-03   4.1715E+00  0.000E+00  0.000E+00  0.000E+00  1.35986E+02  1.536E+00  3.650E+00  7.349E-04  1.511E-03 -1.486E-05
   1    4   20     1    20    4.1715E+00  1.4959E-03   4.1700E+00  0.000E+00  0.000E+00  0.000E+00  1.35686E+02  1.536E+00  3.650E+00  7.348E-04  1.511E-03 -1.471E-05
   1    4   21     1    21    4.1700E+00  1.4955E-03   4.1685E+00  0.000E+00  0.000E+00  0.000E+00  1.35386E+02  1.536E+00  3.650E+00  7.347E-04  1.510E-03 -1.455E-05
   1    4   22     1    22    4.1685E+00  1.4951E-03   4.1670E+00  0.000E+00  0.000E+00  0.000E+00  1.35085E+02  1.535E+00  3.649E+00  7.346E-04  1.509E-03 -1.438E-05
   1    4   23     1    23    4.1670E+00  1.4947E-03   4.1655E+00  0.000E+00  0.000E+00  0.000E+00  1.34785E+02  1.535E+00  3.649E+00  7.345E-04  1.508E-03 -1.326E-05
   1    4   24     1    24    4.1655E+00  1.4943E-03   4.1640E+00  0.000E+00  0.000E+00  0.000E+00  1.34485E+02  1.535E+00  3.649E+00  7.344E-04  1.506E-03 -1.153E-05
   1    4   25     1    25    4.1640E+00  1.4939E-03   4.1625E+00  0.000E+00  0.000E+00  0.000E+00  1.34184E+02  1.534E+00  3.648E+00  7.343E-04  1.504E-03 -9.899E-06
   1    4   26     1    26    4.1625E+00  1.4935E-03   4.1610E+00  0.000E+00  0.000E+00  0.000E+00  1.33884E+02  1.534E+00  3.648E+00  7.342E-04  1.502E-03 -8.373E-06
   1    4   27     1    27    4.1610E+00  1.4931E-03   4.1595E+00  0.000E+00  0.000E+00  0.000E+00  1.33584E+02  1.534E+00  3.648E+00  7.341E-04  1.500E-03 -6.952E-06
   1    4   28     1    28    4.1595E+00  1.4927E-03   4.1581E+00  0.000E+00  0.000E+00  0.000E+00  1.33284E+02  1.534E+00  3.647E+00  7.340E-04  1.499E-03 -6.587E-06
   1    4   29     1    29    4.1581E+00  1.4923E-03   4.1566E+00  0.000E+00  0.000E+00  0.000E+00  1.32983E+02  1.533E+00  3.647E+00  7.340E-04  1.499E-03 -6.434E-06
   1    4   30     1    30    4.1566E+00  1.4919E-03   4.1551E+00  0.000E+00  0.000E+00  0.000E+00  1.32683E+02  1.533E+00  3.647E+00  7.339E-04  1.498E-03 -6.279E-06
   1    4   31     1    31    4.1551E+00  1.4915E-03   4.1536E+00  0.000E+00  0.000E+00  0.000E+00  1.32383E+02  1.533E+00  3.646E+00  7.338E-04  1.498E-03 -6.123E-06
   1    4   32     1    32    4.1536E+00  1.4911E-03   4.1521E+00  0.000E+00  0.000E+00  0.000E+00  1.32082E+02  1.532E+00  3.646E+00  7.337E-04  1.497E-03 -5.965E-06
   1    4   33     1    33    4.1521E+00  1.4907E-03   4.1506E+00  0.000E+00  0.000E+00  0.000E+00  1.31782E+02  1.532E+00  3.646E+00  7.336E-04  1.497E-03 -5.806E-06
   1    4   34     1    34    4.1506E+00  1.4903E-03   4.1491E+00  0.000E+00  0.000E+00  0.000E+00  1.31482E+02  1.532E+00  3.645E+00  7.335E-04  1.496E-03 -5.647E-06
   1    4   35     1    35    4.1491E+00  1.4899E-03   4.1476E+00  0.000E+00  0.000E+00  0.000E+00  1.31182E+02  1.532E+00  3.645E+00  7.334E-04  1.495E-03 -5.486E-06
   1    4   36     1    36    4.1476E+00  1.4895E-03   4.1461E+00  0.000E+00  0.000E+00  0.000E+00  1.30881E+02  1.531E+00  3.645E+00  7.333E-04  1.495E-03 -5.324E-06
   1    4   37     1    37    4.1461E+00  1.4891E-03   4.1446E+00  0.000E+00  0.000E+00  0.000E+00  1.30581E+02  1.531E+00  3.644E+00  7.332E-04  1.494E-03 -5.162E-06
   1    4   38     1    38    4.1446E+00  1.4887E-03   4.1431E+00  0.000E+00  0.000E+00  0.000E+00  1.30281E+02  1.531E+00  3.644E+00  7.331E-04  1.494E-03 -5.001E-06
   1    4   39     1    39    4.1431E+00  1.4883E-03   4.1417E+00  0.000E+00  0.000E+00  0.000E+00  1.29980E+02  1.530E+00  3.643E+00  7.330E-04  1.493E-03 -4.840E-06
   1    4   40     1    40    4.1417E+00  1.4879E-03   4.1402E+00  0.000E+00  0.000E+00  0.000E+00  1.29680E+02  1.530E+00  3.643E+00  7.329E-04  1.493E-03 -4.681E-06
   1    4   41     1    41    4.1402E+00  1.4875E-03   4.1387E+00  0.000E+00  0.000E+00  0.000E+00  1.29380E+02  1.530E+00  3.643E+00  7.328E-04  1.492E-03 -4.522E-06
   1    4   42     1    42    4.1387E+00  1.4871E-03   4.1372E+00  0.000E+00  0.000E+00  0.000E+00  1.29080E+02  1.530E+00  3.642E+00  7.327E-04  1.491E-03 -4.365E-06
   1    4   43     1    43    4.1372E+00  1.4867E-03   4.1357E+00  0.000E+00  0.000E+00  0.000E+00  1.28779E+02  1.529E+00  3.642E+00  7.327E-04  1.491E-03 -4.209E-06
   1    4   44     1    44    4.1357E+00  1.4863E-03   4.1342E+00  0.000E+00  0.000E+00  0.000E+00  1.28479E+02  1.529E+00  3.642E+00  7.326E-04  1.490E-03 -4.054E-06
   1    4   45     1    45    4.1342E+00  1.4859E-03   4.1327E+00  0.000E+00  0.000E+00  0.000E+00  1.28179E+02  1.529E+00  3.641E+00  7.325E-04  1.490E-03 -3.902E-06
   1    4   46     1    46    4.1327E+00  1.4855E-03   4.1313E+00  0.000E+00  0.000E+00  0.000E+00  1.27878E+02  1.528E+00  3.641E+00  7.324E-04  1.489E-03 -3.751E-06
   1    4   47     1    47    4.1313E+00  1.4851E-03   4.1298E+00  0.000E+00  0.000E+00  0.000E+00  1.27578E+02  1.528E+00  3.641E+00  7.323E-04  1.489E-03 -3.604E-06
   1    4   48     1    48    4.1298E+00  1.4847E-03   4.1283E+00  0.000E+00  0.000E+00  0.000E+00  1.27278E+02  1.528E+00  3.640E+00  7.322E-04  1.488E-03 -3.462E-06
   1    4   49     1    49    4.1283E+00  1.4843E-03   4.1268E+00  0.000E+00  0.000E+00  0.000E+00  1.26978E+02  1.528E+00  3.640E+00  7.321E-04  1.489E-03 -4.441E-06
   1    4   50     1    50    4.1268E+00  1.4839E-03   4.1253E+00  0.000E+00  0.000E+00  0.000E+00  1.26677E+02  1.527E+00  3.640E+00  7.320E-04  1.490E-03 -5.762E-06
   1    4   51     1    51    4.1253E+00  1.4835E-03   4.1238E+00  0.000E+00  0.000E+00  0.000E+00  1.26377E+02  1.527E+00  3.639E+00  7.319E-04  1.491E-03 -7.220E-06
   1    4   52     1    52    4.1238E+00  1.4831E-03   4.1223E+00  0.000E+00  0.000E+00  0.000E+00  1.26077E+02  1.527E+00  3.639E+00  7.318E-04  1.492E-03 -8.813E-06
   1    4   53     1    53    4.1223E+00  1.4827E-03   4.1209E+00  0.000E+00  0.000E+00  0.000E+00  1.25776E+02  1.526E+00  3.639E+00  7.317E-04  1.491E-03 -8.696E-06
   1    4   54     1    54    4.1209E+00  1.4823E-03   4.1194E+00  0.000E+00  0.000E+00  0.000E+00  1.25476E+02  1.526E+00  3.638E+00  7.316E-04  1.491E-03 -8.545E-06
   1    4   55     1    55    4.1194E+00  1.4819E-03   4.1179E+00  0.000E+00  0.000E+00  0.000E+00  1.25176E+02  1.526E+00  3.638E+00  7.315E-04  1.490E-03 -8.398E-06
   1    4   56     1    56    4.1179E+00  1.4816E-03   4.1164E+00  0.000E+00  0.000E+00  0.000E+00  1.24876E+02  1.526E+00  3.638E+00  7.314E-04  1.490E-03 -8.254E-06
   1    4   57     1    57    4.1164E+00  1.4812E-03   4.1149E+00  0.000E+00  0.000E+00  0.000E+00  1.24575E+02  1.525E+00  3.637E+00  7.313E-04  1.489E-03 -8.113E-06
   1    4   58     1    58    4.1149E+00  1.4808E-03   4.1135E+00  0.000E+00  0.000E+00  0.000E+00  1.24275E+02  1.525E+00  3.637E+00  7.313E-04  1.489E-03 -7.978E-06
   1    4   59     1    59    4.1135E+00  1.4804E-03   4.1120E+00  0.000E+00  0.000E+00  0.000E+00  1.23975E+02  1.525E+00  3.637E+00  7.312E-04  1.488E-03 -7.846E-06
   1    4   60     1    60    4.1120E+00  1.4800E-03   4.1105E+00  0.000E+00  0.000E+00  0.000E+00  1.23674E+02  1.524E+00  3.636E+00  7.311E-04  1.488E-03 -7.719E-06
   1    4   61     1    61    4.1105E+00  1.4796E-03   4.1090E+00  0.000E+00  0.000E+00  0.000E+00  1.23374E+02  1.524E+00  3.636E+00  7.310E-04  1.487E-03 -7.597E-06
   1    4   62     1    62    4.1090E+00  1.4792E-03   4.1075E+00  0.000E+00  0.000E+00  0.000E+00  1.23074E+02  1.524E+00  3.636E+00  7.309E-04  1.487E-03 -7.480E-06
   1    4   63     1    63    4.1075E+00  1.4788E-03   4.1061E+00  0.000E+00  0.000E+00  0.000E+00  1.22774E+02  1.524E+00  3.635E+00  7.308E-04  1.486E-03 -7.368E-06
   1    4   64     1    64    4.1061E+00  1.4784E-03   4.1046E+00  0.000E+00  0.000E+00  0.000E+00  1.22473E+02  1.523E+00  3.635E+00  7.307E-04  1.486E-03 -7.261E-06
   1    4   65     1    65    4.1046E+00  1.4780E-03   4.1031E+00  0.000E+00  0.000E+00  0.000E+00  1.22173E+02  1.523E+00  3.635E+00  7.306E-04  1.485E-03 -7.158E-06
   1    4   66     1    66    4.1031E+00  1.4776E-03   4.1016E+00  0.000E+00  0.000E+00  0.000E+00  1.21873E+02  1.523E+00  3.634E+00  7.305E-04  1.485E-03 -7.053E-06
   1    4   67     1    67    4.1016E+00  1.4772E-03   4.1001E+00  0.000E+00  0.000E+00  0.000E+00  1.21572E+02  1.522E+00  3.634E+00  7.304E-04  1.487E-03 -1.007E-05
   1    4   68     1    68    4.1001E+00  1.4768E-03   4.0987E+00  0.000E+00  0.000E+00  0.000E+00  1.21272E+02  1.522E+00  3.634E+00  7.303E-04  1.501E-03 -2.447E-05
   1    4   69     1    69    4.0987E+00  1.4764E-03   4.0972E+00  0.000E+00  0.000E+00  0.000E+00  1.20972E+02  1.522E+00  3.633E+00  7.302E-04  1.501E-03 -2.441E-05
   1    4   70     1    70    4.0972E+00  1.4760E-03   4.0957E+00  0.000E+00  0.000E+00  0.000E+00  1.20672E+02  1.522E+00  3.633E+00  7.301E-04  1.500E-03 -2.435E-05
   1    4   71     1    71    4.0957E+00  1.4756E-03   4.0942E+00  0.000E+00  0.000E+00  0.000E+00  1.20371E+02  1.521E+00  3.633E+00  7.300E-04  1.500E-03 -2.429E-05
   1    4   72     1    72    4.0942E+00  1.4752E-03   4.0928E+00  0.000E+00  0.000E+00  0.000E+00  1.20071E+02  1.521E+00  3.632E+00  7.300E-04  1.499E-03 -2.424E-05
   1    4   73     1    73    4.0928E+00  1.4748E-03   4.0913E+00  0.000E+00  0.000E+00  0.000E+00  1.19771E+02  1.521E+00  3.632E+00  7.299E-04  1.499E-03 -2.419E-05
   1    4   74     1    74    4.0913E+00  1.4744E-03   4.0898E+00  0.000E+00  0.000E+00  0.000E+00  1.19470E+02  1.520E+00  3.632E+00  7.298E-04  1.499E-03 -2.416E-05
   1    4   75     1    75    4.0898E+00  1.4740E-03   4.0883E+00  0.000E+00  0.000E+00  0.000E+00  1.19170E+02  1.520E+00  3.631E+00  7.297E-04  1.498E-03 -2.414E-05
   1    4   76     1    76    4.0883E+00  1.4736E-03   4.0869E+00  0.000E+00  0.000E+00  0.000E+00  1.18870E+02  1.520E+00  3.631E+00  7.296E-04  1.498E-03 -2.414E-05
   1    4   77     1    77    4.0869E+00  1.4732E-03   4.0854E+00  0.000E+00  0.000E+00  0.000E+00  1.18570E+02  1.520E+00  3.631E+00  7.295E-04  1.497E-03 -2.416E-05
   1    4   78     1    78    4.0854E+00  1.4728E-03   4.0839E+00  0.000E+00  0.000E+00  0.000E+00  1.18269E+02  1.519E+00  3.630E+00  7.294E-04  1.497E-03 -2.420E-05
   1    4   79     1    79    4.0839E+00  1.4724E-03   4.0825E+00  0.000E+00  0.000E+00  0.000E+00  1.17969E+02  1.519E+00  3.630E+00  7.293E-04  1.497E-03 -2.426E-05
   1    4   80     1    80    4.0825E+00  1.4721E-03   4.0810E+00  0.000E+00  0.000E+00  0.000E+00  1.17669E+02  1.519E+00  3.630E+00  7.292E-04  1.496E-03 -2.435E-05
   1    4   81     1    81    4.0810E+00  1.4717E-03   4.0795E+00  0.000E+00  0.000E+00  0.000E+00  1.17368E+02  1.518E+00  3.629E+00  7.291E-04  1.496E-03 -2.446E-05
   1    4   82     1    82    4.0795E+00  1.4713E-03   4.0780E+00  0.000E+00  0.000E+00  0.000E+00  1.17068E+02  1.518E+00  3.629E+00  7.290E-04  1.497E-03 -2.598E-05
   1    4   83     1    83    4.0780E+00  1.4709E-03   4.0766E+00  0.000E+00  0.000E+00  0.000E+00  1.16768E+02  1.518E+00  3.628E+00  7.289E-04  1.503E-03 -3.171E-05
   1    4   84     1    84    4.0766E+00  1.4705E-03   4.0751E+00  0.000E+00  0.000E+00  0.000E+00  1.16468E+02  1.518E+00  3.628E+00  7.288E-04  1.502E-03 -3.191E-05
   1    4   85     1    85    4.0751E+00  1.4701E-03   4.0736E+00  0.000E+00  0.000E+00  0.000E+00  1.16167E+02  1.517E+00  3.628E+00  7.287E-04  1.502E-03 -3.214E-05
   1    4   86     1    86    4.0736E+00  1.4697E-03   4.0722E+00  0.000E+00  0.000E+00  0.000E+00  1.15867E+02  1.517E+00  3.627E+00  7.287E-04  1.502E-03 -3.240E-05
   1    4   87     1    87    4.0722E+00  1.4693E-03   4.0707E+00  0.000E+00  0.000E+00  0.000E+00  1.15567E+02  1.517E+00  3.627E+00  7.286E-04  1.502E-03 -3.269E-05
   1    4   88     1    88    4.0707E+00  1.4689E-03   4.0692E+00  0.000E+00  0.000E+00  0.000E+00  1.15266E+02  1.516E+00  3.627E+00  7.285E-04  1.502E-03 -3.302E-05
   1    4   89     1    89    4.0692E+00  1.4685E-03   4.0678E+00  0.000E+00  0.000E+00  0.000E+00  1.14966E+02  1.516E+00  3.626E+00  7.284E-04  1.502E-03 -3.338E-05
   1    4   90     1    90    4.0678E+00  1.4681E-03   4.0663E+00  0.000E+00  0.000E+00  0.000E+00  1.14666E+02  1.516E+00  3.626E+00  7.283E-04  1.502E-03 -3.375E-05
   1    4   91     1    91    4.0663E+00  1.4677E-03   4.0648E+00  0.000E+00  0.000E+00  0.000E+00  1.14366E+02  1.516E+00  3.626E+00  7.282E-04  1.502E-03 -3.414E-05
   1    4   92     1    92    4.0648E+00  1.4673E-03   4.0633E+00  0.000E+00  0.000E+00  0.000E+00  1.14065E+02  1.515E+00  3.625E+00  7.281E-04  1.502E-03 -3.452E-05
   1    4   93     1    93    4.0633E+00  1.4669E-03   4.0619E+00  0.000E+00  0.000E+00  0.000E+00  1.13765E+02  1.515E+00  3.625E+00  7.280E-04  1.502E-03 -3.487E-05
   1    4   94     1    94    4.0619E+00  1.4665E-03   4.0604E+00  0.000E+00  0.000E+00  0.000E+00  1.13465E+02  1.515E+00  3.625E+00  7.279E-04  1.502E-03 -3.518E-05
   1    4   95     1    95    4.0604E+00  1.4661E-03   4.0589E+00  0.000E+00  0.000E+00  0.000E+00  1.13164E+02  1.514E+00  3.624E+00  7.278E-04  1.502E-03 -3.542E-05
   1    4   96     1    96    4.0589E+00  1.4658E-03   4.0575E+00  0.000E+00  0.000E+00  0.000E+00  1.12864E+02  1.514E+00  3.624E+00  7.277E-04  1.502E-03 -3.580E-05
   1    4   97     1    97    4.0575E+00  1.4654E-03   4.0560E+00  0.000E+00  0.000E+00  0.000E+00  1.12564E+02  1.514E+00  3.624E+00  7.276E-04  1.509E-03 -4.316E-05
   1    4   98     1    98    4.0560E+00  1.4650E-03   4.0546E+00  0.000E+00  0.000E+00  0.000E+00  1.12264E+02  1.514E+00  3.623E+00  7.275E-04  1.508E-03 -4.309E-05
   1    4   99     1    99    4.0546E+00  1.4646E-03   4.0531E+00  0.000E+00  0.000E+00  0.000E+00  1.11963E+02  1.513E+00  3.623E+00  7.275E-04  1.507E-03 -4.292E-05
   1    4  100     1   100    4.0531E+00  1.4642E-03   4.0516E+00  0.000E+00  0.000E+00  0.000E+00  1.11663E+02  1.513E+00  3.623E+00  7.274E-04  1.507E-03 -4.270E-05



1
  VOLUMETRIC BUDGET FOR UNSATURATED ZONE BENEATH STREAMS AT END OF TIME STEP    30 STRESS PERIOD  48
  ------------------------------------------------------------------------------------------------

    CUMULATIVE VOLUMES             L**3    RATES FOR THIS TIME STEP         L**3/T
    ------------------                     ------------------------


          STREAM LOSS =     35583622.9374            STREAM LOSS =            0.1484
    CHANGE IN STORAGE =       401115.8818      CHANGE IN STORAGE =       -1.9796E-03
       RECHARGE TO GW =     35187854.1573         RECHARGE TO GW =            0.1504

             TOTAL IN =     35583622.9374               TOTAL IN =            0.1504

            TOTAL OUT =     35588970.0391              TOTAL OUT =            0.1504

             IN - OUT =        -5347.1017               IN - OUT =           -0.0000

  PERCENT DISCREPANCY =           -0.00      PERCENT DISCREPANCY =            -0.00






  -------------------------------------------------------------------------------------
  VOLUMETRIC BUDGET FOR ENTIRE MODEL AT END OF TIME STEP   30 IN STRESS PERIOD     48
  -------------------------------------------------------------------------------------

     CUMULATIVE VOLUMES      L**3       RATES FOR THIS TIME STEP      L**3/T
     ------------------                 ------------------------

           IN:                                      IN:
           ---                                      ---
             STORAGE =    17530181.9400               STORAGE =       4.2426E-02
       CONSTANT HEAD =           0.0000         CONSTANT HEAD =           0.0000
     HEAD DEP BOUNDS =           0.0000       HEAD DEP BOUNDS =           0.0000
      STREAM LEAKAGE =    35187854.1573        STREAM LEAKAGE =           0.1504

            TOTAL IN =    52718036.0973              TOTAL IN =           0.1928

          OUT:                                     OUT:
          ----                                     ----
             STORAGE =    17087712.9773               STORAGE =       1.2094E-05
       CONSTANT HEAD =           0.0000         CONSTANT HEAD =           0.0000
     HEAD DEP BOUNDS =    35630328.9871       HEAD DEP BOUNDS =           0.1928
      STREAM LEAKAGE =           0.0000        STREAM LEAKAGE =           0.0000

           TOTAL OUT =    52718041.9644             TOTAL OUT =           0.1928

            IN - OUT =          -5.8671              IN - OUT =      -9.1792E-07

 PERCENT DISCREPANCY =          -0.00     PERCENT DISCREPANCY =          -0.00


          TIME SUMMARY AT END OF TIME STEP    30 IN STRESS PERIOD     48
                    SECONDS     MINUTES      HOURS       DAYS        YEARS
                    -----------------------------------------------------------
   TIME STEP LENGTH 2.49961E+05  4166.0      69.434      2.8931     7.92080E-03
 STRESS PERIOD TIME 2.59200E+06  43200.      720.00      30.000     8.21355E-02
         TOTAL TIME 1.24416E+08 2.07360E+06  34560.      1440.0      3.9425    
 
1
                            STRESS PERIOD NO.     49, LENGTH =   2592000.    
                            -----------------------------------------------

                              NUMBER OF TIME STEPS =    30

                               MULTIPLIER FOR DELT =     1.100

                            INITIAL TIME STEP SIZE =   15757.41    

 REUSING NON-PARAMETER GHB CELLS FROM LAST STRESS PERIOD

      7 GHB CELLS



 CLASSIFICATION & COUNT OF STREAM SEGMENTS BASED ON SOURCE OF INFLOW:

                HEADWATER     DIVERSION     RECEIVES TRIBUTARY FLOW
                ---------     ---------     -----------------------
                     1              0               0



                    INPUT DATA FOR EACH STREAM SEGMENT
 ---------------------------------------------------------------------------------------------

 SEGMENT    SEG.     INFLOW   OVERLAND   STREAM    STREAM   ICALC  OUTFLOW  DIVERSION PRIORITY
    NO.    LENGTH     RATE     RUNOFF      ET       PPT.    METH.  TO SEG.  FROM SEG.    NO.

      1  2.000E+04 0.000E+00 0.000E+00 0.000E+00 0.000E+00    2        0        0        0


         STREAMBED PROPERTIES AND STREAM DIMENSIONS

 SEGMENT     BED HYD. COND.      BED THICKNESS     ELEV.-TOP OF BED     WIDTH OF STREAM     DEPTH OF STREAM    STREAM ROUGHNESS
    No.     UPPER     LOWER     UPPER     LOWER     UPPER     LOWER     UPPER     LOWER     UPPER     LOWER   CHANNEL      BANK

     1  3.500E-07 3.500E-07                                                                                 3.000E-02 4.000E-02

  EIGHT POINT CROSS-SECTION DATA FOR SEGMENTS WITH ICALC = 2
    X VALUES X VALUES START FROM LEFT SIDE LOOKING DOWNSTREAM

     SEGMENT NO.        X1        X2        X3        X4        X5        X6        X7        X8
            1      0.000E+00 2.000E+00 4.000E+00 6.000E+00 8.000E+00 1.000E+01 1.200E+01 1.400E+01

    Z VALUES ARE RELATIVE TO STREAMBED ELEVATION

     SEGMENT NO.          Z1        Z2        Z3        Z4        Z5        Z6        Z7        Z8
            1      6.000E+00 4.500E+00 3.500E+00 0.000E+00 3.000E-01 3.500E+00 4.500E+00 6.000E+00
 
 SOLVING FOR HEAD 

 NO OUTPUT CONTROL FOR STRESS PERIOD     49   TIME STEP     1
 
 SOLVING FOR HEAD 

 NO OUTPUT CONTROL FOR STRESS PERIOD     49   TIME STEP     2
 
 SOLVING FOR HEAD 

 NO OUTPUT CONTROL FOR STRESS PERIOD     49   TIME STEP     3
 
 SOLVING FOR HEAD 

 NO OUTPUT CONTROL FOR STRESS PERIOD     49   TIME STEP     4
 
 SOLVING FOR HEAD 

 NO OUTPUT CONTROL FOR STRESS PERIOD     49   TIME STEP     5
 
 SOLVING FOR HEAD 

 NO OUTPUT CONTROL FOR STRESS PERIOD     49   TIME STEP     6
 
 SOLVING FOR HEAD 

 NO OUTPUT CONTROL FOR STRESS PERIOD     49   TIME STEP     7
 
 SOLVING FOR HEAD 

 NO OUTPUT CONTROL FOR STRESS PERIOD     49   TIME STEP     8
 
 SOLVING FOR HEAD 

 NO OUTPUT CONTROL FOR STRESS PERIOD     49   TIME STEP     9
 
 SOLVING FOR HEAD 

 NO OUTPUT CONTROL FOR STRESS PERIOD     49   TIME STEP    10
 
 SOLVING FOR HEAD 

 NO OUTPUT CONTROL FOR STRESS PERIOD     49   TIME STEP    11
 
 SOLVING FOR HEAD 

 NO OUTPUT CONTROL FOR STRESS PERIOD     49   TIME STEP    12
 
 SOLVING FOR HEAD 

 NO OUTPUT CONTROL FOR STRESS PERIOD     49   TIME STEP    13
 
 SOLVING FOR HEAD 

 NO OUTPUT CONTROL FOR STRESS PERIOD     49   TIME STEP    14
 
 SOLVING FOR HEAD 

 NO OUTPUT CONTROL FOR STRESS PERIOD     49   TIME STEP    15
 
 SOLVING FOR HEAD 

 NO OUTPUT CONTROL FOR STRESS PERIOD     49   TIME STEP    16
 
 SOLVING FOR HEAD 

 NO OUTPUT CONTROL FOR STRESS PERIOD     49   TIME STEP    17
 
 SOLVING FOR HEAD 

 NO OUTPUT CONTROL FOR STRESS PERIOD     49   TIME STEP    18
 
 SOLVING FOR HEAD 

 NO OUTPUT CONTROL FOR STRESS PERIOD     49   TIME STEP    19
 
 SOLVING FOR HEAD 

 NO OUTPUT CONTROL FOR STRESS PERIOD     49   TIME STEP    20
 
 SOLVING FOR HEAD 

 NO OUTPUT CONTROL FOR STRESS PERIOD     49   TIME STEP    21
 
 SOLVING FOR HEAD 

 NO OUTPUT CONTROL FOR STRESS PERIOD     49   TIME STEP    22
 
 SOLVING FOR HEAD 

 NO OUTPUT CONTROL FOR STRESS PERIOD     49   TIME STEP    23
 
 SOLVING FOR HEAD 

 NO OUTPUT CONTROL FOR STRESS PERIOD     49   TIME STEP    24
 
 SOLVING FOR HEAD 

 NO OUTPUT CONTROL FOR STRESS PERIOD     49   TIME STEP    25
 
 SOLVING FOR HEAD 

 NO OUTPUT CONTROL FOR STRESS PERIOD     49   TIME STEP    26
 
 SOLVING FOR HEAD 

 NO OUTPUT CONTROL FOR STRESS PERIOD     49   TIME STEP    27
 
 SOLVING FOR HEAD 

 NO OUTPUT CONTROL FOR STRESS PERIOD     49   TIME STEP    28
 
 SOLVING FOR HEAD 

 NO OUTPUT CONTROL FOR STRESS PERIOD     49   TIME STEP    29
 
 SOLVING FOR HEAD 

 NO OUTPUT CONTROL FOR STRESS PERIOD     49   TIME STEP    30



 STREAM LISTING     PERIOD     49   STEP       30

 LAYER ROW COL. STREAM  RCH.   FLOW INTO    STREAM     FLOW OUT OF   OVRLND.    DIRECT     STREAM      STREAM      STREAM     STREAM  STREAMBED   FLOW TO   CHNG. UNSAT. 
                SEG.NO.  NO.   STRM. RCH.    LOSS       STRM. RCH.   RUNOFF     PRECIP       ET         HEAD        DEPTH      WIDTH  CONDCTNC.   WAT. TAB.

   1    4    1     1     1    0.0000E+00  0.0000E+00   0.0000E+00  0.000E+00  0.000E+00  0.000E+00  1.39850E+02  0.000E+00  6.000E+00  8.400E-04  3.180E-04 -3.180E-04
   1    4    2     1     2    0.0000E+00  0.0000E+00   0.0000E+00  0.000E+00  0.000E+00  0.000E+00  1.39550E+02  0.000E+00  6.000E+00  8.400E-04  3.178E-04 -3.178E-04
   1    4    3     1     3    0.0000E+00  0.0000E+00   0.0000E+00  0.000E+00  0.000E+00  0.000E+00  1.39250E+02  0.000E+00  6.000E+00  8.400E-04  3.177E-04 -3.177E-04
   1    4    4     1     4    0.0000E+00  0.0000E+00   0.0000E+00  0.000E+00  0.000E+00  0.000E+00  1.38950E+02  0.000E+00  6.000E+00  8.400E-04  3.175E-04 -3.175E-04
   1    4    5     1     5    0.0000E+00  0.0000E+00   0.0000E+00  0.000E+00  0.000E+00  0.000E+00  1.38650E+02  0.000E+00  6.000E+00  8.400E-04  3.104E-04 -3.104E-04
   1    4    6     1     6    0.0000E+00  0.0000E+00   0.0000E+00  0.000E+00  0.000E+00  0.000E+00  1.38350E+02  0.000E+00  6.000E+00  8.400E-04  2.991E-04 -2.991E-04
   1    4    7     1     7    0.0000E+00  0.0000E+00   0.0000E+00  0.000E+00  0.000E+00  0.000E+00  1.38050E+02  0.000E+00  6.000E+00  8.400E-04  2.812E-04 -2.812E-04
   1    4    8     1     8    0.0000E+00  0.0000E+00   0.0000E+00  0.000E+00  0.000E+00  0.000E+00  1.37750E+02  0.000E+00  6.000E+00  8.400E-04  2.617E-04 -2.617E-04
   1    4    9     1     9    0.0000E+00  0.0000E+00   0.0000E+00  0.000E+00  0.000E+00  0.000E+00  1.37450E+02  0.000E+00  6.000E+00  8.400E-04  2.427E-04 -2.427E-04
   1    4   10     1    10    0.0000E+00  0.0000E+00   0.0000E+00  0.000E+00  0.000E+00  0.000E+00  1.37150E+02  0.000E+00  6.000E+00  8.400E-04  2.240E-04 -2.240E-04
   1    4   11     1    11    0.0000E+00  0.0000E+00   0.0000E+00  0.000E+00  0.000E+00  0.000E+00  1.36850E+02  0.000E+00  6.000E+00  8.400E-04  2.058E-04 -2.058E-04
   1    4   12     1    12    0.0000E+00  0.0000E+00   0.0000E+00  0.000E+00  0.000E+00  0.000E+00  1.36550E+02  0.000E+00  6.000E+00  8.400E-04  1.881E-04 -1.881E-04
   1    4   13     1    13    0.0000E+00  0.0000E+00   0.0000E+00  0.000E+00  0.000E+00  0.000E+00  1.36250E+02  0.000E+00  6.000E+00  8.400E-04  1.708E-04 -1.708E-04
   1    4   14     1    14    0.0000E+00  0.0000E+00   0.0000E+00  0.000E+00  0.000E+00  0.000E+00  1.35950E+02  0.000E+00  6.000E+00  8.400E-04  1.540E-04 -1.540E-04
   1    4   15     1    15    0.0000E+00  0.0000E+00   0.0000E+00  0.000E+00  0.000E+00  0.000E+00  1.35650E+02  0.000E+00  6.000E+00  8.400E-04  1.376E-04 -1.376E-04
   1    4   16     1    16    0.0000E+00  0.0000E+00   0.0000E+00  0.000E+00  0.000E+00  0.000E+00  1.35350E+02  0.000E+00  6.000E+00  8.400E-04  1.337E-04 -1.337E-04
   1    4   17     1    17    0.0000E+00  0.0000E+00   0.0000E+00  0.000E+00  0.000E+00  0.000E+00  1.35050E+02  0.000E+00  6.000E+00  8.400E-04  1.336E-04 -1.336E-04
   1    4   18     1    18    0.0000E+00  0.0000E+00   0.0000E+00  0.000E+00  0.000E+00  0.000E+00  1.34750E+02  0.000E+00  6.000E+00  8.400E-04  1.335E-04 -1.335E-04
   1    4   19     1    19    0.0000E+00  0.0000E+00   0.0000E+00  0.000E+00  0.000E+00  0.000E+00  1.34450E+02  0.000E+00  6.000E+00  8.400E-04  1.334E-04 -1.334E-04
   1    4   20     1    20    0.0000E+00  0.0000E+00   0.0000E+00  0.000E+00  0.000E+00  0.000E+00  1.34150E+02  0.000E+00  6.000E+00  8.400E-04  1.333E-04 -1.333E-04
   1    4   21     1    21    0.0000E+00  0.0000E+00   0.0000E+00  0.000E+00  0.000E+00  0.000E+00  1.33850E+02  0.000E+00  6.000E+00  8.400E-04  1.332E-04 -1.332E-04
   1    4   22     1    22    0.0000E+00  0.0000E+00   0.0000E+00  0.000E+00  0.000E+00  0.000E+00  1.33550E+02  0.000E+00  6.000E+00  8.400E-04  1.331E-04 -1.331E-04
   1    4   23     1    23    0.0000E+00  0.0000E+00   0.0000E+00  0.000E+00  0.000E+00  0.000E+00  1.33250E+02  0.000E+00  6.000E+00  8.400E-04  1.330E-04 -1.330E-04
   1    4   24     1    24    0.0000E+00  0.0000E+00   0.0000E+00  0.000E+00  0.000E+00  0.000E+00  1.32950E+02  0.000E+00  6.000E+00  8.400E-04  1.329E-04 -1.329E-04
   1    4   25     1    25    0.0000E+00  0.0000E+00   0.0000E+00  0.000E+00  0.000E+00  0.000E+00  1.32650E+02  0.000E+00  6.000E+00  8.400E-04  1.327E-04 -1.327E-04
   1    4   26     1    26    0.0000E+00  0.0000E+00   0.0000E+00  0.000E+00  0.000E+00  0.000E+00  1.32350E+02  0.000E+00  6.000E+00  8.400E-04  1.326E-04 -1.326E-04
   1    4   27     1    27    0.0000E+00  0.0000E+00   0.0000E+00  0.000E+00  0.000E+00  0.000E+00  1.32050E+02  0.000E+00  6.000E+00  8.400E-04  1.325E-04 -1.325E-04
   1    4   28     1    28    0.0000E+00  0.0000E+00   0.0000E+00  0.000E+00  0.000E+00  0.000E+00  1.31750E+02  0.000E+00  6.000E+00  8.400E-04  1.324E-04 -1.324E-04
   1    4   29     1    29    0.0000E+00  0.0000E+00   0.0000E+00  0.000E+00  0.000E+00  0.000E+00  1.31450E+02  0.000E+00  6.000E+00  8.400E-04  1.322E-04 -1.322E-04
   1    4   30     1    30    0.0000E+00  0.0000E+00   0.0000E+00  0.000E+00  0.000E+00  0.000E+00  1.31150E+02  0.000E+00  6.000E+00  8.400E-04  1.321E-04 -1.321E-04
   1    4   31     1    31    0.0000E+00  0.0000E+00   0.0000E+00  0.000E+00  0.000E+00  0.000E+00  1.30850E+02  0.000E+00  6.000E+00  8.400E-04  1.320E-04 -1.320E-04
   1    4   32     1    32    0.0000E+00  0.0000E+00   0.0000E+00  0.000E+00  0.000E+00  0.000E+00  1.30550E+02  0.000E+00  6.000E+00  8.400E-04  1.318E-04 -1.318E-04
   1    4   33     1    33    0.0000E+00  0.0000E+00   0.0000E+00  0.000E+00  0.000E+00  0.000E+00  1.30250E+02  0.000E+00  6.000E+00  8.400E-04  1.317E-04 -1.317E-04
   1    4   34     1    34    0.0000E+00  0.0000E+00   0.0000E+00  0.000E+00  0.000E+00  0.000E+00  1.29950E+02  0.000E+00  6.000E+00  8.400E-04  1.316E-04 -1.316E-04
   1    4   35     1    35    0.0000E+00  0.0000E+00   0.0000E+00  0.000E+00  0.000E+00  0.000E+00  1.29650E+02  0.000E+00  6.000E+00  8.400E-04  1.314E-04 -1.314E-04
   1    4   36     1    36    0.0000E+00  0.0000E+00   0.0000E+00  0.000E+00  0.000E+00  0.000E+00  1.29350E+02  0.000E+00  6.000E+00  8.400E-04  1.313E-04 -1.313E-04
   1    4   37     1    37    0.0000E+00  0.0000E+00   0.0000E+00  0.000E+00  0.000E+00  0.000E+00  1.29050E+02  0.000E+00  6.000E+00  8.400E-04  1.312E-04 -1.312E-04
   1    4   38     1    38    0.0000E+00  0.0000E+00   0.0000E+00  0.000E+00  0.000E+00  0.000E+00  1.28750E+02  0.000E+00  6.000E+00  8.400E-04  1.310E-04 -1.310E-04
   1    4   39     1    39    0.0000E+00  0.0000E+00   0.0000E+00  0.000E+00  0.000E+00  0.000E+00  1.28450E+02  0.000E+00  6.000E+00  8.400E-04  1.309E-04 -1.309E-04
   1    4   40     1    40    0.0000E+00  0.0000E+00   0.0000E+00  0.000E+00  0.000E+00  0.000E+00  1.28150E+02  0.000E+00  6.000E+00  8.400E-04  1.307E-04 -1.307E-04
   1    4   41     1    41    0.0000E+00  0.0000E+00   0.0000E+00  0.000E+00  0.000E+00  0.000E+00  1.27850E+02  0.000E+00  6.000E+00  8.400E-04  1.306E-04 -1.306E-04
   1    4   42     1    42    0.0000E+00  0.0000E+00   0.0000E+00  0.000E+00  0.000E+00  0.000E+00  1.27550E+02  0.000E+00  6.000E+00  8.400E-04  1.305E-04 -1.305E-04
   1    4   43     1    43    0.0000E+00  0.0000E+00   0.0000E+00  0.000E+00  0.000E+00  0.000E+00  1.27250E+02  0.000E+00  6.000E+00  8.400E-04  1.303E-04 -1.303E-04
   1    4   44     1    44    0.0000E+00  0.0000E+00   0.0000E+00  0.000E+00  0.000E+00  0.000E+00  1.26950E+02  0.000E+00  6.000E+00  8.400E-04  1.302E-04 -1.302E-04
   1    4   45     1    45    0.0000E+00  0.0000E+00   0.0000E+00  0.000E+00  0.000E+00  0.000E+00  1.26650E+02  0.000E+00  6.000E+00  8.400E-04  1.301E-04 -1.301E-04
   1    4   46     1    46    0.0000E+00  0.0000E+00   0.0000E+00  0.000E+00  0.000E+00  0.000E+00  1.26350E+02  0.000E+00  6.000E+00  8.400E-04  1.300E-04 -1.300E-04
   1    4   47     1    47    0.0000E+00  0.0000E+00   0.0000E+00  0.000E+00  0.000E+00  0.000E+00  1.26050E+02  0.000E+00  6.000E+00  8.400E-04  1.298E-04 -1.298E-04
   1    4   48     1    48    0.0000E+00  0.0000E+00   0.0000E+00  0.000E+00  0.000E+00  0.000E+00  1.25750E+02  0.000E+00  6.000E+00  8.400E-04  1.297E-04 -1.297E-04
   1    4   49     1    49    0.0000E+00  0.0000E+00   0.0000E+00  0.000E+00  0.000E+00  0.000E+00  1.25450E+02  0.000E+00  6.000E+00  8.400E-04  1.296E-04 -1.296E-04
   1    4   50     1    50    0.0000E+00  0.0000E+00   0.0000E+00  0.000E+00  0.000E+00  0.000E+00  1.25150E+02  0.000E+00  6.000E+00  8.400E-04  1.295E-04 -1.295E-04
   1    4   51     1    51    0.0000E+00  0.0000E+00   0.0000E+00  0.000E+00  0.000E+00  0.000E+00  1.24850E+02  0.000E+00  6.000E+00  8.400E-04  1.294E-04 -1.294E-04
   1    4   52     1    52    0.0000E+00  0.0000E+00   0.0000E+00  0.000E+00  0.000E+00  0.000E+00  1.24550E+02  0.000E+00  6.000E+00  8.400E-04  1.293E-04 -1.293E-04
   1    4   53     1    53    0.0000E+00  0.0000E+00   0.0000E+00  0.000E+00  0.000E+00  0.000E+00  1.24250E+02  0.000E+00  6.000E+00  8.400E-04  1.292E-04 -1.292E-04
   1    4   54     1    54    0.0000E+00  0.0000E+00   0.0000E+00  0.000E+00  0.000E+00  0.000E+00  1.23950E+02  0.000E+00  6.000E+00  8.400E-04  1.291E-04 -1.291E-04
   1    4   55     1    55    0.0000E+00  0.0000E+00   0.0000E+00  0.000E+00  0.000E+00  0.000E+00  1.23650E+02  0.000E+00  6.000E+00  8.400E-04  1.290E-04 -1.290E-04
   1    4   56     1    56    0.0000E+00  0.0000E+00   0.0000E+00  0.000E+00  0.000E+00  0.000E+00  1.23350E+02  0.000E+00  6.000E+00  8.400E-04  1.289E-04 -1.289E-04
   1    4   57     1    57    0.0000E+00  0.0000E+00   0.0000E+00  0.000E+00  0.000E+00  0.000E+00  1.23050E+02  0.000E+00  6.000E+00  8.400E-04  1.288E-04 -1.288E-04
   1    4   58     1    58    0.0000E+00  0.0000E+00   0.0000E+00  0.000E+00  0.000E+00  0.000E+00  1.22750E+02  0.000E+00  6.000E+00  8.400E-04  1.287E-04 -1.287E-04
   1    4   59     1    59    0.0000E+00  0.0000E+00   0.0000E+00  0.000E+00  0.000E+00  0.000E+00  1.22450E+02  0.000E+00  6.000E+00  8.400E-04  1.286E-04 -1.286E-04
   1    4   60     1    60    0.0000E+00  0.0000E+00   0.0000E+00  0.000E+00  0.000E+00  0.000E+00  1.22150E+02  0.000E+00  6.000E+00  8.400E-04  1.285E-04 -1.285E-04
   1    4   61     1    61    0.0000E+00  0.0000E+00   0.0000E+00  0.000E+00  0.000E+00  0.000E+00  1.21850E+02  0.000E+00  6.000E+00  8.400E-04  1.284E-04 -1.284E-04
   1    4   62     1    62    0.0000E+00  0.0000E+00   0.0000E+00  0.000E+00  0.000E+00  0.000E+00  1.21550E+02  0.000E+00  6.000E+00  8.400E-04  1.283E-04 -1.283E-04
   1    4   63     1    63    0.0000E+00  0.0000E+00   0.0000E+00  0.000E+00  0.000E+00  0.000E+00  1.21250E+02  0.000E+00  6.000E+00  8.400E-04  1.282E-04 -1.282E-04
   1    4   64     1    64    0.0000E+00  0.0000E+00   0.0000E+00  0.000E+00  0.000E+00  0.000E+00  1.20950E+02  0.000E+00  6.000E+00  8.400E-04  1.281E-04 -1.281E-04
   1    4   65     1    65    0.0000E+00  0.0000E+00   0.0000E+00  0.000E+00  0.000E+00  0.000E+00  1.20650E+02  0.000E+00  6.000E+00  8.400E-04  1.280E-04 -1.280E-04
   1    4   66     1    66    0.0000E+00  0.0000E+00   0.0000E+00  0.000E+00  0.000E+00  0.000E+00  1.20350E+02  0.000E+00  6.000E+00  8.400E-04  1.279E-04 -1.279E-04
   1    4   67     1    67    0.0000E+00  0.0000E+00   0.0000E+00  0.000E+00  0.000E+00  0.000E+00  1.20050E+02  0.000E+00  6.000E+00  8.400E-04  1.278E-04 -1.278E-04
   1    4   68     1    68    0.0000E+00  0.0000E+00   0.0000E+00  0.000E+00  0.000E+00  0.000E+00  1.19750E+02  0.000E+00  6.000E+00  8.400E-04  1.277E-04 -1.277E-04
   1    4   69     1    69    0.0000E+00  0.0000E+00   0.0000E+00  0.000E+00  0.000E+00  0.000E+00  1.19450E+02  0.000E+00  6.000E+00  8.400E-04  1.301E-04 -1.301E-04
   1    4   70     1    70    0.0000E+00  0.0000E+00   0.0000E+00  0.000E+00  0.000E+00  0.000E+00  1.19150E+02  0.000E+00  6.000E+00  8.400E-04  1.327E-04 -1.327E-04
   1    4   71     1    71    0.0000E+00  0.0000E+00   0.0000E+00  0.000E+00  0.000E+00  0.000E+00  1.18850E+02  0.000E+00  6.000E+00  8.400E-04  1.477E-04 -1.477E-04
   1    4   72     1    72    0.0000E+00  0.0000E+00   0.0000E+00  0.000E+00  0.000E+00  0.000E+00  1.18550E+02  0.000E+00  6.000E+00  8.400E-04  1.692E-04 -1.692E-04
   1    4   73     1    73    0.0000E+00  0.0000E+00   0.0000E+00  0.000E+00  0.000E+00  0.000E+00  1.18250E+02  0.000E+00  6.000E+00  8.400E-04  1.917E-04 -1.917E-04
   1    4   74     1    74    0.0000E+00  0.0000E+00   0.0000E+00  0.000E+00  0.000E+00  0.000E+00  1.17950E+02  0.000E+00  6.000E+00  8.400E-04  2.152E-04 -2.152E-04
   1    4   75     1    75    0.0000E+00  0.0000E+00   0.0000E+00  0.000E+00  0.000E+00  0.000E+00  1.17650E+02  0.000E+00  6.000E+00  8.400E-04  2.397E-04 -2.397E-04
   1    4   76     1    76    0.0000E+00  0.0000E+00   0.0000E+00  0.000E+00  0.000E+00  0.000E+00  1.17350E+02  0.000E+00  6.000E+00  8.400E-04  2.713E-04 -2.713E-04
   1    4   77     1    77    0.0000E+00  0.0000E+00   0.0000E+00  0.000E+00  0.000E+00  0.000E+00  1.17050E+02  0.000E+00  6.000E+00  8.400E-04  3.086E-04 -3.086E-04
   1    4   78     1    78    0.0000E+00  0.0000E+00   0.0000E+00  0.000E+00  0.000E+00  0.000E+00  1.16750E+02  0.000E+00  6.000E+00  8.400E-04  3.099E-04 -3.099E-04
   1    4   79     1    79    0.0000E+00  0.0000E+00   0.0000E+00  0.000E+00  0.000E+00  0.000E+00  1.16450E+02  0.000E+00  6.000E+00  8.400E-04  3.099E-04 -3.099E-04
   1    4   80     1    80    0.0000E+00  0.0000E+00   0.0000E+00  0.000E+00  0.000E+00  0.000E+00  1.16150E+02  0.000E+00  6.000E+00  8.400E-04  3.099E-04 -3.099E-04
   1    4   81     1    81    0.0000E+00  0.0000E+00   0.0000E+00  0.000E+00  0.000E+00  0.000E+00  1.15850E+02  0.000E+00  6.000E+00  8.400E-04  3.099E-04 -3.099E-04
   1    4   82     1    82    0.0000E+00  0.0000E+00   0.0000E+00  0.000E+00  0.000E+00  0.000E+00  1.15550E+02  0.000E+00  6.000E+00  8.400E-04  3.099E-04 -3.099E-04
   1    4   83     1    83    0.0000E+00  0.0000E+00   0.0000E+00  0.000E+00  0.000E+00  0.000E+00  1.15250E+02  0.000E+00  6.000E+00  8.400E-04  3.100E-04 -3.100E-04
   1    4   84     1    84    0.0000E+00  0.0000E+00   0.0000E+00  0.000E+00  0.000E+00  0.000E+00  1.14950E+02  0.000E+00  6.000E+00  8.400E-04  3.100E-04 -3.100E-04
   1    4   85     1    85    0.0000E+00  0.0000E+00   0.0000E+00  0.000E+00  0.000E+00  0.000E+00  1.14650E+02  0.000E+00  6.000E+00  8.400E-04  3.101E-04 -3.101E-04
   1    4   86     1    86    0.0000E+00  0.0000E+00   0.0000E+00  0.000E+00  0.000E+00  0.000E+00  1.14350E+02  0.000E+00  6.000E+00  8.400E-04  3.102E-04 -3.102E-04
   1    4   87     1    87    0.0000E+00  0.0000E+00   0.0000E+00  0.000E+00  0.000E+00  0.000E+00  1.14050E+02  0.000E+00  6.000E+00  8.400E-04  3.103E-04 -3.103E-04
   1    4   88     1    88    0.0000E+00  0.0000E+00   0.0000E+00  0.000E+00  0.000E+00  0.000E+00  1.13750E+02  0.000E+00  6.000E+00  8.400E-04  3.104E-04 -3.104E-04
   1    4   89     1    89    0.0000E+00  0.0000E+00   0.0000E+00  0.000E+00  0.000E+00  0.000E+00  1.13450E+02  0.000E+00  6.000E+00  8.400E-04  3.105E-04 -3.105E-04
   1    4   90     1    90    0.0000E+00  0.0000E+00   0.0000E+00  0.000E+00  0.000E+00  0.000E+00  1.13150E+02  0.000E+00  6.000E+00  8.400E-04  3.107E-04 -3.107E-04
   1    4   91     1    91    0.0000E+00  0.0000E+00   0.0000E+00  0.000E+00  0.000E+00  0.000E+00  1.12850E+02  0.000E+00  6.000E+00  8.400E-04  3.109E-04 -3.109E-04
   1    4   92     1    92    0.0000E+00  0.0000E+00   0.0000E+00  0.000E+00  0.000E+00  0.000E+00  1.12550E+02  0.000E+00  6.000E+00  8.400E-04  3.171E-04 -3.171E-04
   1    4   93     1    93    0.0000E+00  0.0000E+00   0.0000E+00  0.000E+00  0.000E+00  0.000E+00  1.12250E+02  0.000E+00  6.000E+00  8.400E-04  3.177E-04 -3.177E-04
   1    4   94     1    94    0.0000E+00  0.0000E+00   0.0000E+00  0.000E+00  0.000E+00  0.000E+00  1.11950E+02  0.000E+00  6.000E+00  8.400E-04  3.180E-04 -3.180E-04
   1    4   95     1    95    0.0000E+00  0.0000E+00   0.0000E+00  0.000E+00  0.000E+00  0.000E+00  1.11650E+02  0.000E+00  6.000E+00  8.400E-04  3.184E-04 -3.184E-04
   1    4   96     1    96    0.0000E+00  0.0000E+00   0.0000E+00  0.000E+00  0.000E+00  0.000E+00  1.11350E+02  0.000E+00  6.000E+00  8.400E-04  3.190E-04 -3.190E-04
   1    4   97     1    97    0.0000E+00  0.0000E+00   0.0000E+00  0.000E+00  0.000E+00  0.000E+00  1.11050E+02  0.000E+00  6.000E+00  8.400E-04  3.305E-04 -3.305E-04
   1    4   98     1    98    0.0000E+00  0.0000E+00   0.0000E+00  0.000E+00  0.000E+00  0.000E+00  1.10750E+02  0.000E+00  6.000E+00  8.400E-04  3.775E-04 -3.775E-04
   1    4   99     1    99    0.0000E+00  0.0000E+00   0.0000E+00  0.000E+00  0.000E+00  0.000E+00  1.10450E+02  0.000E+00  6.000E+00  8.400E-04  4.262E-04 -4.262E-04
   1    4  100     1   100    0.0000E+00  0.0000E+00   0.0000E+00  0.000E+00  0.000E+00  0.000E+00  1.10150E+02  0.000E+00  6.000E+00  8.400E-04  4.766E-04 -4.766E-04



1
  VOLUMETRIC BUDGET FOR UNSATURATED ZONE BENEATH STREAMS AT END OF TIME STEP    30 STRESS PERIOD  49
  ------------------------------------------------------------------------------------------------

    CUMULATIVE VOLUMES             L**3    RATES FOR THIS TIME STEP         L**3/T
    ------------------                     ------------------------


          STREAM LOSS =     35583622.9374            STREAM LOSS =            0.0000
    CHANGE IN STORAGE =       213875.2115      CHANGE IN STORAGE =       -2.0018E-02
       RECHARGE TO GW =     35375444.9246         RECHARGE TO GW =        2.0018E-02

             TOTAL IN =     35583622.9374               TOTAL IN =        2.0018E-02

            TOTAL OUT =     35589320.1361              TOTAL OUT =        2.0018E-02

             IN - OUT =        -5697.1987               IN - OUT =           -0.0000

  PERCENT DISCREPANCY =           -0.00      PERCENT DISCREPANCY =            -0.00






  -------------------------------------------------------------------------------------
  VOLUMETRIC BUDGET FOR ENTIRE MODEL AT END OF TIME STEP   30 IN STRESS PERIOD     49
  -------------------------------------------------------------------------------------

     CUMULATIVE VOLUMES      L**3       RATES FOR THIS TIME STEP      L**3/T
     ------------------                 ------------------------

           IN:                                      IN:
           ---                                      ---
             STORAGE =    17837901.5339               STORAGE =           0.1681
       CONSTANT HEAD =           0.0000         CONSTANT HEAD =           0.0000
     HEAD DEP BOUNDS =           0.0000       HEAD DEP BOUNDS =           0.0000
      STREAM LEAKAGE =    35375444.9246        STREAM LEAKAGE =       2.0018E-02

            TOTAL IN =    53213346.4585              TOTAL IN =           0.1882

          OUT:                                     OUT:
          ----                                     ----
             STORAGE =    17087713.4921               STORAGE =           0.0000
       CONSTANT HEAD =           0.0000         CONSTANT HEAD =           0.0000
     HEAD DEP BOUNDS =    36125639.7482       HEAD DEP BOUNDS =           0.1882
      STREAM LEAKAGE =           0.0000        STREAM LEAKAGE =           0.0000

           TOTAL OUT =    53213353.2403             TOTAL OUT =           0.1882

            IN - OUT =          -6.7818              IN - OUT =      -2.8674E-07

 PERCENT DISCREPANCY =          -0.00     PERCENT DISCREPANCY =          -0.00


          TIME SUMMARY AT END OF TIME STEP    30 IN STRESS PERIOD     49
                    SECONDS     MINUTES      HOURS       DAYS        YEARS
                    -----------------------------------------------------------
   TIME STEP LENGTH 2.49961E+05  4166.0      69.434      2.8931     7.92080E-03
 STRESS PERIOD TIME 2.59200E+06  43200.      720.00      30.000     8.21355E-02
         TOTAL TIME 1.27008E+08 2.11680E+06  35280.      1470.0      4.0246    
 
1
                            STRESS PERIOD NO.     50, LENGTH =   2592000.    
                            -----------------------------------------------

                              NUMBER OF TIME STEPS =    30

                               MULTIPLIER FOR DELT =     1.100

                            INITIAL TIME STEP SIZE =   15757.41    

 REUSING NON-PARAMETER GHB CELLS FROM LAST STRESS PERIOD

      7 GHB CELLS



 CLASSIFICATION & COUNT OF STREAM SEGMENTS BASED ON SOURCE OF INFLOW:

                HEADWATER     DIVERSION     RECEIVES TRIBUTARY FLOW
                ---------     ---------     -----------------------
                     1              0               0



                    INPUT DATA FOR EACH STREAM SEGMENT
 ---------------------------------------------------------------------------------------------

 SEGMENT    SEG.     INFLOW   OVERLAND   STREAM    STREAM   ICALC  OUTFLOW  DIVERSION PRIORITY
    NO.    LENGTH     RATE     RUNOFF      ET       PPT.    METH.  TO SEG.  FROM SEG.    NO.

      1  2.000E+04 9.000E-01 0.000E+00 0.000E+00 0.000E+00    2        0        0        0


         STREAMBED PROPERTIES AND STREAM DIMENSIONS

 SEGMENT     BED HYD. COND.      BED THICKNESS     ELEV.-TOP OF BED     WIDTH OF STREAM     DEPTH OF STREAM    STREAM ROUGHNESS
    No.     UPPER     LOWER     UPPER     LOWER     UPPER     LOWER     UPPER     LOWER     UPPER     LOWER   CHANNEL      BANK

     1  3.500E-07 3.500E-07                                                                                 3.000E-02 4.000E-02

  EIGHT POINT CROSS-SECTION DATA FOR SEGMENTS WITH ICALC = 2
    X VALUES X VALUES START FROM LEFT SIDE LOOKING DOWNSTREAM

     SEGMENT NO.        X1        X2        X3        X4        X5        X6        X7        X8
            1      0.000E+00 2.000E+00 4.000E+00 6.000E+00 8.000E+00 1.000E+01 1.200E+01 1.400E+01

    Z VALUES ARE RELATIVE TO STREAMBED ELEVATION

     SEGMENT NO.          Z1        Z2        Z3        Z4        Z5        Z6        Z7        Z8
            1      6.000E+00 4.500E+00 3.500E+00 0.000E+00 3.000E-01 3.500E+00 4.500E+00 6.000E+00
 
 SOLVING FOR HEAD 

 NO OUTPUT CONTROL FOR STRESS PERIOD     50   TIME STEP     1
 
 SOLVING FOR HEAD 

 NO OUTPUT CONTROL FOR STRESS PERIOD     50   TIME STEP     2
 
 SOLVING FOR HEAD 

 NO OUTPUT CONTROL FOR STRESS PERIOD     50   TIME STEP     3
 
 SOLVING FOR HEAD 

 NO OUTPUT CONTROL FOR STRESS PERIOD     50   TIME STEP     4
 
 SOLVING FOR HEAD 

 NO OUTPUT CONTROL FOR STRESS PERIOD     50   TIME STEP     5
 
 SOLVING FOR HEAD 

 NO OUTPUT CONTROL FOR STRESS PERIOD     50   TIME STEP     6
 
 SOLVING FOR HEAD 

 NO OUTPUT CONTROL FOR STRESS PERIOD     50   TIME STEP     7
 
 SOLVING FOR HEAD 

 NO OUTPUT CONTROL FOR STRESS PERIOD     50   TIME STEP     8
 
 SOLVING FOR HEAD 

 NO OUTPUT CONTROL FOR STRESS PERIOD     50   TIME STEP     9
 
 SOLVING FOR HEAD 

 NO OUTPUT CONTROL FOR STRESS PERIOD     50   TIME STEP    10
 
 SOLVING FOR HEAD 

 NO OUTPUT CONTROL FOR STRESS PERIOD     50   TIME STEP    11
 
 SOLVING FOR HEAD 

 NO OUTPUT CONTROL FOR STRESS PERIOD     50   TIME STEP    12
 
 SOLVING FOR HEAD 

 NO OUTPUT CONTROL FOR STRESS PERIOD     50   TIME STEP    13
 
 SOLVING FOR HEAD 

 NO OUTPUT CONTROL FOR STRESS PERIOD     50   TIME STEP    14
 
 SOLVING FOR HEAD 

 NO OUTPUT CONTROL FOR STRESS PERIOD     50   TIME STEP    15
 
 SOLVING FOR HEAD 

 NO OUTPUT CONTROL FOR STRESS PERIOD     50   TIME STEP    16
 
 SOLVING FOR HEAD 

 NO OUTPUT CONTROL FOR STRESS PERIOD     50   TIME STEP    17
 
 SOLVING FOR HEAD 

 NO OUTPUT CONTROL FOR STRESS PERIOD     50   TIME STEP    18
 
 SOLVING FOR HEAD 

 NO OUTPUT CONTROL FOR STRESS PERIOD     50   TIME STEP    19
 
 SOLVING FOR HEAD 

 NO OUTPUT CONTROL FOR STRESS PERIOD     50   TIME STEP    20
 
 SOLVING FOR HEAD 

 NO OUTPUT CONTROL FOR STRESS PERIOD     50   TIME STEP    21
 
 SOLVING FOR HEAD 

 NO OUTPUT CONTROL FOR STRESS PERIOD     50   TIME STEP    22
 
 SOLVING FOR HEAD 

 NO OUTPUT CONTROL FOR STRESS PERIOD     50   TIME STEP    23
 
 SOLVING FOR HEAD 

 NO OUTPUT CONTROL FOR STRESS PERIOD     50   TIME STEP    24
 
 SOLVING FOR HEAD 

 NO OUTPUT CONTROL FOR STRESS PERIOD     50   TIME STEP    25
 
 SOLVING FOR HEAD 

 NO OUTPUT CONTROL FOR STRESS PERIOD     50   TIME STEP    26
 
 SOLVING FOR HEAD 

 NO OUTPUT CONTROL FOR STRESS PERIOD     50   TIME STEP    27
 
 SOLVING FOR HEAD 

 NO OUTPUT CONTROL FOR STRESS PERIOD     50   TIME STEP    28
 
 SOLVING FOR HEAD 

 NO OUTPUT CONTROL FOR STRESS PERIOD     50   TIME STEP    29
 
 SOLVING FOR HEAD 

 OUTPUT CONTROL FOR STRESS PERIOD     50   TIME STEP    30
    PRINT HEAD FOR ALL LAYERS
    PRINT BUDGET
    SAVE BUDGET

  HEAD DEP BOUNDS   PERIOD   50   STEP  30
 BOUNDARY      1   LAYER   1   ROW     1   COL   100   RATE   -0.273994E-01   COND     4.10000    
 BOUNDARY      2   LAYER   1   ROW     2   COL   100   RATE   -0.273936E-01   COND     4.10000    
 BOUNDARY      3   LAYER   1   ROW     3   COL   100   RATE   -0.271079E-01   COND     4.10000    
 BOUNDARY      4   LAYER   1   ROW     4   COL   100   RATE   -0.191046E-01   COND     4.10000    
 BOUNDARY      5   LAYER   1   ROW     5   COL   100   RATE   -0.271079E-01   COND     4.10000    
 BOUNDARY      6   LAYER   1   ROW     6   COL   100   RATE   -0.273936E-01   COND     4.10000    
 BOUNDARY      7   LAYER   1   ROW     7   COL   100   RATE   -0.273994E-01   COND     4.10000    



 STREAM LISTING     PERIOD     50   STEP       30

 LAYER ROW COL. STREAM  RCH.   FLOW INTO    STREAM     FLOW OUT OF   OVRLND.    DIRECT     STREAM      STREAM      STREAM     STREAM  STREAMBED   FLOW TO   CHNG. UNSAT. 
                SEG.NO.  NO.   STRM. RCH.    LOSS       STRM. RCH.   RUNOFF     PRECIP       ET         HEAD        DEPTH      WIDTH  CONDCTNC.   WAT. TAB.

   1    4    1     1     1    9.0000E-01  5.5751E-04   8.9944E-01  0.000E+00  0.000E+00  0.000E+00  1.40554E+02  7.036E-01  2.654E+00  4.632E-04  1.350E-04  4.225E-04
   1    4    2     1     2    8.9944E-01  5.5733E-04   8.9889E-01  0.000E+00  0.000E+00  0.000E+00  1.40253E+02  7.034E-01  2.654E+00  4.631E-04  1.349E-04  4.224E-04
   1    4    3     1     3    8.9889E-01  5.5714E-04   8.9833E-01  0.000E+00  0.000E+00  0.000E+00  1.39953E+02  7.032E-01  2.654E+00  4.631E-04  1.348E-04  4.223E-04
   1    4    4     1     4    8.9833E-01  5.5696E-04   8.9777E-01  0.000E+00  0.000E+00  0.000E+00  1.39653E+02  7.029E-01  2.654E+00  4.630E-04  1.348E-04  4.222E-04
   1    4    5     1     5    8.9777E-01  5.5678E-04   8.9721E-01  0.000E+00  0.000E+00  0.000E+00  1.39353E+02  7.027E-01  2.653E+00  4.629E-04  1.347E-04  4.221E-04
   1    4    6     1     6    8.9721E-01  5.5660E-04   8.9666E-01  0.000E+00  0.000E+00  0.000E+00  1.39053E+02  7.025E-01  2.653E+00  4.629E-04  1.346E-04  4.220E-04
   1    4    7     1     7    8.9666E-01  5.5642E-04   8.9610E-01  0.000E+00  0.000E+00  0.000E+00  1.38752E+02  7.023E-01  2.653E+00  4.628E-04  1.328E-04  4.236E-04
   1    4    8     1     8    8.9610E-01  5.5624E-04   8.9555E-01  0.000E+00  0.000E+00  0.000E+00  1.38452E+02  7.021E-01  2.653E+00  4.627E-04  1.107E-04  4.456E-04
   1    4    9     1     9    8.9555E-01  5.5606E-04   8.9499E-01  0.000E+00  0.000E+00  0.000E+00  1.38152E+02  7.019E-01  2.652E+00  4.627E-04  8.899E-05  4.671E-04
   1    4   10     1    10    8.9499E-01  5.5588E-04   8.9443E-01  0.000E+00  0.000E+00  0.000E+00  1.37852E+02  7.017E-01  2.652E+00  4.626E-04  6.786E-05  4.880E-04
   1    4   11     1    11    8.9443E-01  5.5570E-04   8.9388E-01  0.000E+00  0.000E+00  0.000E+00  1.37551E+02  7.015E-01  2.652E+00  4.625E-04  4.728E-05  5.084E-04
   1    4   12     1    12    8.9388E-01  5.5552E-04   8.9332E-01  0.000E+00  0.000E+00  0.000E+00  1.37251E+02  7.013E-01  2.651E+00  4.625E-04  4.147E-05  5.141E-04
   1    4   13     1    13    8.9332E-01  5.5534E-04   8.9277E-01  0.000E+00  0.000E+00  0.000E+00  1.36951E+02  7.010E-01  2.651E+00  4.624E-04  8.915E-05  4.662E-04
   1    4   14     1    14    8.9277E-01  5.5516E-04   8.9221E-01  0.000E+00  0.000E+00  0.000E+00  1.36651E+02  7.008E-01  2.651E+00  4.623E-04  1.403E-04  4.149E-04
   1    4   15     1    15    8.9221E-01  5.5498E-04   8.9166E-01  0.000E+00  0.000E+00  0.000E+00  1.36351E+02  7.006E-01  2.651E+00  4.622E-04  1.900E-04  3.650E-04
   1    4   16     1    16    8.9166E-01  5.5480E-04   8.9110E-01  0.000E+00  0.000E+00  0.000E+00  1.36050E+02  7.004E-01  2.650E+00  4.622E-04  2.383E-04  3.165E-04
   1    4   17     1    17    8.9110E-01  5.5462E-04   8.9055E-01  0.000E+00  0.000E+00  0.000E+00  1.35750E+02  7.002E-01  2.650E+00  4.621E-04  2.850E-04  2.696E-04
   1    4   18     1    18    8.9055E-01  5.5444E-04   8.8999E-01  0.000E+00  0.000E+00  0.000E+00  1.35450E+02  7.000E-01  2.650E+00  4.620E-04  3.304E-04  2.241E-04
   1    4   19     1    19    8.8999E-01  5.5426E-04   8.8944E-01  0.000E+00  0.000E+00  0.000E+00  1.35150E+02  6.998E-01  2.650E+00  4.620E-04  3.742E-04  1.801E-04
   1    4   20     1    20    8.8944E-01  5.5408E-04   8.8888E-01  0.000E+00  0.000E+00  0.000E+00  1.34850E+02  6.996E-01  2.649E+00  4.619E-04  4.165E-04  1.375E-04
   1    4   21     1    21    8.8888E-01  5.5390E-04   8.8833E-01  0.000E+00  0.000E+00  0.000E+00  1.34549E+02  6.994E-01  2.649E+00  4.618E-04  4.574E-04  9.653E-05
   1    4   22     1    22    8.8833E-01  5.5372E-04   8.8778E-01  0.000E+00  0.000E+00  0.000E+00  1.34249E+02  6.991E-01  2.649E+00  4.618E-04  4.967E-04  5.706E-05
   1    4   23     1    23    8.8778E-01  5.5354E-04   8.8722E-01  0.000E+00  0.000E+00  0.000E+00  1.33949E+02  6.989E-01  2.649E+00  4.617E-04  5.344E-04  1.915E-05
   1    4   24     1    24    8.8722E-01  5.5336E-04   8.8667E-01  0.000E+00  0.000E+00  0.000E+00  1.33649E+02  6.987E-01  2.648E+00  4.616E-04  5.553E-04 -1.907E-06
   1    4   25     1    25    8.8667E-01  5.5318E-04   8.8612E-01  0.000E+00  0.000E+00  0.000E+00  1.33349E+02  6.985E-01  2.648E+00  4.616E-04  5.550E-04 -1.799E-06
   1    4   26     1    26    8.8612E-01  5.5300E-04   8.8556E-01  0.000E+00  0.000E+00  0.000E+00  1.33048E+02  6.983E-01  2.648E+00  4.615E-04  5.546E-04 -1.648E-06
   1    4   27     1    27    8.8556E-01  5.5282E-04   8.8501E-01  0.000E+00  0.000E+00  0.000E+00  1.32748E+02  6.981E-01  2.648E+00  4.614E-04  5.543E-04 -1.483E-06
   1    4   28     1    28    8.8501E-01  5.5264E-04   8.8446E-01  0.000E+00  0.000E+00  0.000E+00  1.32448E+02  6.979E-01  2.647E+00  4.613E-04  5.540E-04 -1.314E-06
   1    4   29     1    29    8.8446E-01  5.5246E-04   8.8391E-01  0.000E+00  0.000E+00  0.000E+00  1.32148E+02  6.977E-01  2.647E+00  4.613E-04  5.536E-04 -1.145E-06
   1    4   30     1    30    8.8391E-01  5.5228E-04   8.8335E-01  0.000E+00  0.000E+00  0.000E+00  1.31847E+02  6.975E-01  2.647E+00  4.612E-04  5.533E-04 -9.787E-07
   1    4   31     1    31    8.8335E-01  5.5210E-04   8.8280E-01  0.000E+00  0.000E+00  0.000E+00  1.31547E+02  6.972E-01  2.647E+00  4.611E-04  5.529E-04 -8.145E-07
   1    4   32     1    32    8.8280E-01  5.5192E-04   8.8225E-01  0.000E+00  0.000E+00  0.000E+00  1.31247E+02  6.970E-01  2.646E+00  4.611E-04  5.526E-04 -6.528E-07
   1    4   33     1    33    8.8225E-01  5.5174E-04   8.8170E-01  0.000E+00  0.000E+00  0.000E+00  1.30947E+02  6.968E-01  2.646E+00  4.610E-04  5.522E-04 -4.937E-07
   1    4   34     1    34    8.8170E-01  5.5156E-04   8.8115E-01  0.000E+00  0.000E+00  0.000E+00  1.30647E+02  6.966E-01  2.646E+00  4.609E-04  5.519E-04 -3.374E-07
   1    4   35     1    35    8.8115E-01  5.5138E-04   8.8059E-01  0.000E+00  0.000E+00  0.000E+00  1.30346E+02  6.964E-01  2.646E+00  4.609E-04  5.516E-04 -1.841E-07
   1    4   36     1    36    8.8059E-01  5.5121E-04   8.8004E-01  0.000E+00  0.000E+00  0.000E+00  1.30046E+02  6.962E-01  2.645E+00  4.608E-04  5.512E-04 -3.395E-08
   1    4   37     1    37    8.8004E-01  5.5103E-04   8.7949E-01  0.000E+00  0.000E+00  0.000E+00  1.29746E+02  6.960E-01  2.645E+00  4.607E-04  5.509E-04  1.128E-07
   1    4   38     1    38    8.7949E-01  5.5085E-04   8.7894E-01  0.000E+00  0.000E+00  0.000E+00  1.29446E+02  6.958E-01  2.645E+00  4.607E-04  5.506E-04  2.561E-07
   1    4   39     1    39    8.7894E-01  5.5067E-04   8.7839E-01  0.000E+00  0.000E+00  0.000E+00  1.29146E+02  6.956E-01  2.645E+00  4.606E-04  5.503E-04  3.956E-07
   1    4   40     1    40    8.7839E-01  5.5049E-04   8.7784E-01  0.000E+00  0.000E+00  0.000E+00  1.28845E+02  6.954E-01  2.644E+00  4.605E-04  5.500E-04  5.311E-07
   1    4   41     1    41    8.7784E-01  5.5031E-04   8.7729E-01  0.000E+00  0.000E+00  0.000E+00  1.28545E+02  6.951E-01  2.644E+00  4.605E-04  5.496E-04  6.625E-07
   1    4   42     1    42    8.7729E-01  5.5013E-04   8.7674E-01  0.000E+00  0.000E+00  0.000E+00  1.28245E+02  6.949E-01  2.644E+00  4.604E-04  5.493E-04  7.895E-07
   1    4   43     1    43    8.7674E-01  5.4995E-04   8.7619E-01  0.000E+00  0.000E+00  0.000E+00  1.27945E+02  6.947E-01  2.644E+00  4.603E-04  5.490E-04  9.119E-07
   1    4   44     1    44    8.7619E-01  5.4977E-04   8.7564E-01  0.000E+00  0.000E+00  0.000E+00  1.27645E+02  6.945E-01  2.643E+00  4.602E-04  5.487E-04  1.029E-06
   1    4   45     1    45    8.7564E-01  5.4959E-04   8.7509E-01  0.000E+00  0.000E+00  0.000E+00  1.27344E+02  6.943E-01  2.643E+00  4.602E-04  5.485E-04  1.142E-06
   1    4   46     1    46    8.7509E-01  5.4941E-04   8.7454E-01  0.000E+00  0.000E+00  0.000E+00  1.27044E+02  6.941E-01  2.643E+00  4.601E-04  5.481E-04  1.328E-06
   1    4   47     1    47    8.7454E-01  5.4924E-04   8.7399E-01  0.000E+00  0.000E+00  0.000E+00  1.26744E+02  6.939E-01  2.643E+00  4.600E-04  5.477E-04  1.577E-06
   1    4   48     1    48    8.7399E-01  5.4906E-04   8.7344E-01  0.000E+00  0.000E+00  0.000E+00  1.26444E+02  6.937E-01  2.642E+00  4.600E-04  5.473E-04  1.746E-06
   1    4   49     1    49    8.7344E-01  5.4888E-04   8.7289E-01  0.000E+00  0.000E+00  0.000E+00  1.26143E+02  6.935E-01  2.642E+00  4.599E-04  5.471E-04  1.826E-06
   1    4   50     1    50    8.7289E-01  5.4870E-04   8.7235E-01  0.000E+00  0.000E+00  0.000E+00  1.25843E+02  6.932E-01  2.642E+00  4.598E-04  5.468E-04  1.900E-06
   1    4   51     1    51    8.7235E-01  5.4852E-04   8.7180E-01  0.000E+00  0.000E+00  0.000E+00  1.25543E+02  6.930E-01  2.642E+00  4.598E-04  5.466E-04  1.968E-06
   1    4   52     1    52    8.7180E-01  5.4834E-04   8.7125E-01  0.000E+00  0.000E+00  0.000E+00  1.25243E+02  6.928E-01  2.641E+00  4.597E-04  5.463E-04  2.029E-06
   1    4   53     1    53    8.7125E-01  5.4816E-04   8.7070E-01  0.000E+00  0.000E+00  0.000E+00  1.24943E+02  6.926E-01  2.641E+00  4.596E-04  5.461E-04  2.084E-06
   1    4   54     1    54    8.7070E-01  5.4798E-04   8.7015E-01  0.000E+00  0.000E+00  0.000E+00  1.24642E+02  6.924E-01  2.641E+00  4.596E-04  5.459E-04  2.132E-06
   1    4   55     1    55    8.7015E-01  5.4781E-04   8.6960E-01  0.000E+00  0.000E+00  0.000E+00  1.24342E+02  6.922E-01  2.641E+00  4.595E-04  5.456E-04  2.173E-06
   1    4   56     1    56    8.6960E-01  5.4763E-04   8.6906E-01  0.000E+00  0.000E+00  0.000E+00  1.24042E+02  6.920E-01  2.640E+00  4.594E-04  5.454E-04  2.205E-06
   1    4   57     1    57    8.6906E-01  5.4745E-04   8.6851E-01  0.000E+00  0.000E+00  0.000E+00  1.23742E+02  6.918E-01  2.640E+00  4.594E-04  5.452E-04  2.230E-06
   1    4   58     1    58    8.6851E-01  5.4727E-04   8.6796E-01  0.000E+00  0.000E+00  0.000E+00  1.23442E+02  6.916E-01  2.640E+00  4.593E-04  5.450E-04  2.245E-06
   1    4   59     1    59    8.6796E-01  5.4709E-04   8.6742E-01  0.000E+00  0.000E+00  0.000E+00  1.23141E+02  6.914E-01  2.640E+00  4.592E-04  5.448E-04  2.253E-06
   1    4   60     1    60    8.6742E-01  5.4691E-04   8.6687E-01  0.000E+00  0.000E+00  0.000E+00  1.22841E+02  6.911E-01  2.639E+00  4.592E-04  5.447E-04  2.252E-06
   1    4   61     1    61    8.6687E-01  5.4674E-04   8.6632E-01  0.000E+00  0.000E+00  0.000E+00  1.22541E+02  6.909E-01  2.639E+00  4.591E-04  5.445E-04  2.248E-06
   1    4   62     1    62    8.6632E-01  5.4656E-04   8.6577E-01  0.000E+00  0.000E+00  0.000E+00  1.22241E+02  6.907E-01  2.639E+00  4.590E-04  5.443E-04  2.252E-06
   1    4   63     1    63    8.6577E-01  5.4638E-04   8.6523E-01  0.000E+00  0.000E+00  0.000E+00  1.21941E+02  6.905E-01  2.639E+00  4.589E-04  5.441E-04  2.299E-06
   1    4   64     1    64    8.6523E-01  5.4620E-04   8.6468E-01  0.000E+00  0.000E+00  0.000E+00  1.21640E+02  6.903E-01  2.638E+00  4.589E-04  5.094E-04  3.681E-05
   1    4   65     1    65    8.6468E-01  5.4602E-04   8.6414E-01  0.000E+00  0.000E+00  0.000E+00  1.21340E+02  6.901E-01  2.638E+00  4.588E-04  4.625E-04  8.353E-05
   1    4   66     1    66    8.6414E-01  5.4585E-04   8.6359E-01  0.000E+00  0.000E+00  0.000E+00  1.21040E+02  6.899E-01  2.638E+00  4.587E-04  4.129E-04  1.330E-04
   1    4   67     1    67    8.6359E-01  5.4567E-04   8.6304E-01  0.000E+00  0.000E+00  0.000E+00  1.20740E+02  6.897E-01  2.638E+00  4.587E-04  3.606E-04  1.851E-04
   1    4   68     1    68    8.6304E-01  5.4549E-04   8.6250E-01  0.000E+00  0.000E+00  0.000E+00  1.20439E+02  6.895E-01  2.637E+00  4.586E-04  3.055E-04  2.400E-04
   1    4   69     1    69    8.6250E-01  5.4531E-04   8.6195E-01  0.000E+00  0.000E+00  0.000E+00  1.20139E+02  6.893E-01  2.637E+00  4.585E-04  2.476E-04  2.977E-04
   1    4   70     1    70    8.6195E-01  5.4513E-04   8.6141E-01  0.000E+00  0.000E+00  0.000E+00  1.19839E+02  6.890E-01  2.637E+00  4.585E-04  1.868E-04  3.583E-04
   1    4   71     1    71    8.6141E-01  5.4496E-04   8.6086E-01  0.000E+00  0.000E+00  0.000E+00  1.19539E+02  6.888E-01  2.637E+00  4.584E-04  1.232E-04  4.217E-04
   1    4   72     1    72    8.6086E-01  5.4478E-04   8.6032E-01  0.000E+00  0.000E+00  0.000E+00  1.19239E+02  6.886E-01  2.636E+00  4.583E-04  5.673E-05  4.880E-04
   1    4   73     1    73    8.6032E-01  5.4460E-04   8.5977E-01  0.000E+00  0.000E+00  0.000E+00  1.18938E+02  6.884E-01  2.636E+00  4.583E-04  3.719E-05  5.074E-04
   1    4   74     1    74    8.5977E-01  5.4442E-04   8.5923E-01  0.000E+00  0.000E+00  0.000E+00  1.18638E+02  6.882E-01  2.636E+00  4.582E-04  6.221E-05  4.822E-04
   1    4   75     1    75    8.5923E-01  5.4424E-04   8.5869E-01  0.000E+00  0.000E+00  0.000E+00  1.18338E+02  6.880E-01  2.636E+00  4.581E-04  9.014E-05  4.541E-04
   1    4   76     1    76    8.5869E-01  5.4407E-04   8.5814E-01  0.000E+00  0.000E+00  0.000E+00  1.18038E+02  6.878E-01  2.635E+00  4.581E-04  1.193E-04  4.248E-04
   1    4   77     1    77    8.5814E-01  5.4389E-04   8.5760E-01  0.000E+00  0.000E+00  0.000E+00  1.17738E+02  6.876E-01  2.635E+00  4.580E-04  1.278E-04  4.161E-04
   1    4   78     1    78    8.5760E-01  5.4371E-04   8.5705E-01  0.000E+00  0.000E+00  0.000E+00  1.17437E+02  6.874E-01  2.635E+00  4.579E-04  1.279E-04  4.158E-04
   1    4   79     1    79    8.5705E-01  5.4353E-04   8.5651E-01  0.000E+00  0.000E+00  0.000E+00  1.17137E+02  6.871E-01  2.635E+00  4.578E-04  1.328E-04  4.108E-04
   1    4   80     1    80    8.5651E-01  5.4336E-04   8.5597E-01  0.000E+00  0.000E+00  0.000E+00  1.16837E+02  6.869E-01  2.634E+00  4.578E-04  1.328E-04  4.106E-04
   1    4   81     1    81    8.5597E-01  5.4318E-04   8.5542E-01  0.000E+00  0.000E+00  0.000E+00  1.16537E+02  6.867E-01  2.634E+00  4.577E-04  1.328E-04  4.104E-04
   1    4   82     1    82    8.5542E-01  5.4300E-04   8.5488E-01  0.000E+00  0.000E+00  0.000E+00  1.16237E+02  6.865E-01  2.634E+00  4.576E-04  1.328E-04  4.102E-04
   1    4   83     1    83    8.5488E-01  5.4282E-04   8.5434E-01  0.000E+00  0.000E+00  0.000E+00  1.15936E+02  6.863E-01  2.634E+00  4.576E-04  1.495E-04  3.934E-04
   1    4   84     1    84    8.5434E-01  5.4265E-04   8.5380E-01  0.000E+00  0.000E+00  0.000E+00  1.15636E+02  6.861E-01  2.633E+00  4.575E-04  1.496E-04  3.931E-04
   1    4   85     1    85    8.5380E-01  5.4247E-04   8.5325E-01  0.000E+00  0.000E+00  0.000E+00  1.15336E+02  6.859E-01  2.633E+00  4.574E-04  1.497E-04  3.928E-04
   1    4   86     1    86    8.5325E-01  5.4229E-04   8.5271E-01  0.000E+00  0.000E+00  0.000E+00  1.15036E+02  6.857E-01  2.633E+00  4.574E-04  1.498E-04  3.925E-04
   1    4   87     1    87    8.5271E-01  5.4212E-04   8.5217E-01  0.000E+00  0.000E+00  0.000E+00  1.14735E+02  6.855E-01  2.633E+00  4.573E-04  1.501E-04  3.921E-04
   1    4   88     1    88    8.5217E-01  5.4194E-04   8.5163E-01  0.000E+00  0.000E+00  0.000E+00  1.14435E+02  6.853E-01  2.632E+00  4.572E-04  1.503E-04  3.916E-04
   1    4   89     1    89    8.5163E-01  5.4176E-04   8.5108E-01  0.000E+00  0.000E+00  0.000E+00  1.14135E+02  6.851E-01  2.632E+00  4.572E-04  1.506E-04  3.912E-04
   1    4   90     1    90    8.5108E-01  5.4158E-04   8.5054E-01  0.000E+00  0.000E+00  0.000E+00  1.13835E+02  6.848E-01  2.632E+00  4.571E-04  1.509E-04  3.907E-04
   1    4   91     1    91    8.5054E-01  5.4141E-04   8.5000E-01  0.000E+00  0.000E+00  0.000E+00  1.13535E+02  6.846E-01  2.632E+00  4.570E-04  1.513E-04  3.901E-04
   1    4   92     1    92    8.5000E-01  5.4123E-04   8.4946E-01  0.000E+00  0.000E+00  0.000E+00  1.13234E+02  6.844E-01  2.631E+00  4.570E-04  1.518E-04  3.895E-04
   1    4   93     1    93    8.4946E-01  5.4105E-04   8.4892E-01  0.000E+00  0.000E+00  0.000E+00  1.12934E+02  6.842E-01  2.631E+00  4.569E-04  1.523E-04  3.888E-04
   1    4   94     1    94    8.4892E-01  5.4088E-04   8.4838E-01  0.000E+00  0.000E+00  0.000E+00  1.12634E+02  6.840E-01  2.631E+00  4.568E-04  1.529E-04  3.880E-04
   1    4   95     1    95    8.4838E-01  5.4070E-04   8.4784E-01  0.000E+00  0.000E+00  0.000E+00  1.12334E+02  6.838E-01  2.631E+00  4.568E-04  1.536E-04  3.871E-04
   1    4   96     1    96    8.4784E-01  5.4052E-04   8.4730E-01  0.000E+00  0.000E+00  0.000E+00  1.12034E+02  6.836E-01  2.630E+00  4.567E-04  1.544E-04  3.861E-04
   1    4   97     1    97    8.4730E-01  5.4035E-04   8.4676E-01  0.000E+00  0.000E+00  0.000E+00  1.11733E+02  6.834E-01  2.630E+00  4.566E-04  1.553E-04  3.850E-04
   1    4   98     1    98    8.4676E-01  5.4017E-04   8.4622E-01  0.000E+00  0.000E+00  0.000E+00  1.11433E+02  6.832E-01  2.630E+00  4.565E-04  1.563E-04  3.839E-04
   1    4   99     1    99    8.4622E-01  5.3999E-04   8.4568E-01  0.000E+00  0.000E+00  0.000E+00  1.11133E+02  6.830E-01  2.630E+00  4.565E-04  1.622E-04  3.778E-04
   1    4  100     1   100    8.4568E-01  5.3982E-04   8.4514E-01  0.000E+00  0.000E+00  0.000E+00  1.10833E+02  6.827E-01  2.629E+00  4.564E-04  1.647E-04  3.751E-04



1
  VOLUMETRIC BUDGET FOR UNSATURATED ZONE BENEATH STREAMS AT END OF TIME STEP    30 STRESS PERIOD  50
  ------------------------------------------------------------------------------------------------

    CUMULATIVE VOLUMES             L**3    RATES FOR THIS TIME STEP         L**3/T
    ------------------                     ------------------------


          STREAM LOSS =     35725827.1375            STREAM LOSS =        5.4863E-02
    CHANGE IN STORAGE =       314327.2552      CHANGE IN STORAGE =        2.1532E-02
       RECHARGE TO GW =     35417197.0810         RECHARGE TO GW =        3.3331E-02

             TOTAL IN =     35725827.1375               TOTAL IN =        5.4863E-02

            TOTAL OUT =     35731524.3362              TOTAL OUT =        5.4863E-02

             IN - OUT =        -5697.1987               IN - OUT =            0.0000

  PERCENT DISCREPANCY =           -0.00      PERCENT DISCREPANCY =             0.00



1
              HEAD IN LAYER   1 AT END OF TIME STEP  30 IN STRESS PERIOD   50
  ---------------------------------------------------------------------------

          1      2      3      4      5      6      7      8      9     10
         11     12     13     14     15     16     17     18     19     20
         21     22     23     24     25     26     27     28     29     30
         31     32     33     34     35     36     37     38     39     40
         41     42     43     44     45     46     47     48     49     50
         51     52     53     54     55     56     57     58     59     60
         61     62     63     64     65     66     67     68     69     70
         71     72     73     74     75     76     77     78     79     80
         81     82     83     84     85     86     87     88     89     90
         91     92     93     94     95     96     97     98     99    100
 .........................................................................
   1   115.2  115.2  115.2  115.2  115.2  115.1  115.1  115.0  115.0  114.9
       114.9  114.8  114.8  114.7  114.6  114.5  114.4  114.3  114.2  114.1
       114.0  113.8  113.7  113.6  113.4  113.3  113.1  112.9  112.8  112.6
       112.4  112.2  112.0  111.8  111.6  111.3  111.1  110.9  110.6  110.4
       110.1  109.8  109.5  109.2  109.0  108.6  108.3  108.0  107.7  107.3
       107.0  106.6  106.3  105.9  105.5  105.1  104.7  104.3  103.8  103.4
       102.9  102.5  102.0  101.5  101.0  100.5  100.0   99.5   98.9   98.4
        97.8   97.2   96.6   96.0   95.4   94.8   94.1   93.5   92.8   92.1
        91.4   90.7   89.9   89.2   88.4   87.6   86.9   86.0   85.2   84.4
        83.5   82.6   81.7   80.8   79.9   78.9   78.0   77.0   76.0   75.0
   2   115.2  115.2  115.2  115.2  115.2  115.1  115.1  115.0  115.0  114.9
       114.9  114.8  114.8  114.7  114.6  114.5  114.4  114.3  114.2  114.1
       114.0  113.8  113.7  113.6  113.4  113.3  113.1  112.9  112.8  112.6
       112.4  112.2  112.0  111.8  111.6  111.3  111.1  110.9  110.6  110.4
       110.1  109.8  109.5  109.3  109.0  108.6  108.3  108.0  107.7  107.3
       107.0  106.6  106.3  105.9  105.5  105.1  104.7  104.3  103.8  103.4
       102.9  102.5  102.0  101.5  101.0  100.5  100.0   99.5   98.9   98.4
        97.8   97.2   96.6   96.0   95.4   94.8   94.1   93.5   92.8   92.1
        91.4   90.7   89.9   89.2   88.4   87.6   86.9   86.0   85.2   84.4
        83.5   82.6   81.7   80.8   79.9   78.9   78.0   77.0   76.0   75.0
   3   115.2  115.2  115.2  115.2  115.2  115.1  115.1  115.0  115.0  114.9
       114.9  114.8  114.8  114.7  114.6  114.5  114.4  114.3  114.2  114.1
       114.0  113.8  113.7  113.6  113.4  113.3  113.1  112.9  112.8  112.6
       112.4  112.2  112.0  111.8  111.6  111.3  111.1  110.9  110.6  110.4
       110.1  109.8  109.5  109.3  109.0  108.6  108.3  108.0  107.7  107.3
       107.0  106.6  106.3  105.9  105.5  105.1  104.7  104.3  103.8  103.4
       102.9  102.5  102.0  101.5  101.0  100.5  100.0   99.5   98.9   98.4
        97.8   97.2   96.6   96.0   95.4   94.8   94.1   93.5   92.8   92.1
        91.4   90.7   89.9   89.2   88.4   87.6   86.9   86.0   85.2   84.4
        83.5   82.6   81.7   80.8   79.9   78.9   78.0   77.0   76.0   75.0
   4   115.2  115.2  115.2  115.2  115.2  115.1  115.1  115.1  115.0  114.9
       114.9  114.8  114.8  114.7  114.6  114.5  114.4  114.3  114.2  114.1
       114.0  113.8  113.7  113.6  113.4  113.3  113.1  112.9  112.8  112.6
       112.4  112.2  112.0  111.8  111.6  111.3  111.1  110.9  110.6  110.4
       110.1  109.8  109.5  109.3  109.0  108.6  108.3  108.0  107.7  107.3
       107.0  106.6  106.3  105.9  105.5  105.1  104.7  104.3  103.8  103.4
       102.9  102.5  102.0  101.5  101.0  100.5  100.0   99.5   98.9   98.4
        97.8   97.2   96.6   96.0   95.4   94.8   94.1   93.5   92.8   92.1
        91.4   90.7   89.9   89.2   88.4   87.6   86.9   86.0   85.2   84.4
        83.5   82.6   81.7   80.8   79.9   78.9   78.0   77.0   76.0   75.0
   5   115.2  115.2  115.2  115.2  115.2  115.1  115.1  115.0  115.0  114.9
       114.9  114.8  114.8  114.7  114.6  114.5  114.4  114.3  114.2  114.1
       114.0  113.8  113.7  113.6  113.4  113.3  113.1  112.9  112.8  112.6
       112.4  112.2  112.0  111.8  111.6  111.3  111.1  110.9  110.6  110.4
       110.1  109.8  109.5  109.3  109.0  108.6  108.3  108.0  107.7  107.3
       107.0  106.6  106.3  105.9  105.5  105.1  104.7  104.3  103.8  103.4
       102.9  102.5  102.0  101.5  101.0  100.5  100.0   99.5   98.9   98.4
        97.8   97.2   96.6   96.0   95.4   94.8   94.1   93.5   92.8   92.1
        91.4   90.7   89.9   89.2   88.4   87.6   86.9   86.0   85.2   84.4
        83.5   82.6   81.7   80.8   79.9   78.9   78.0   77.0   76.0   75.0
   6   115.2  115.2  115.2  115.2  115.2  115.1  115.1  115.0  115.0  114.9
       114.9  114.8  114.8  114.7  114.6  114.5  114.4  114.3  114.2  114.1
       114.0  113.8  113.7  113.6  113.4  113.3  113.1  112.9  112.8  112.6
       112.4  112.2  112.0  111.8  111.6  111.3  111.1  110.9  110.6  110.4
       110.1  109.8  109.5  109.3  109.0  108.6  108.3  108.0  107.7  107.3
       107.0  106.6  106.3  105.9  105.5  105.1  104.7  104.3  103.8  103.4
       102.9  102.5  102.0  101.5  101.0  100.5  100.0   99.5   98.9   98.4
        97.8   97.2   96.6   96.0   95.4   94.8   94.1   93.5   92.8   92.1
        91.4   90.7   89.9   89.2   88.4   87.6   86.9   86.0   85.2   84.4
        83.5   82.6   81.7   80.8   79.9   78.9   78.0   77.0   76.0   75.0
   7   115.2  115.2  115.2  115.2  115.2  115.1  115.1  115.0  115.0  114.9
       114.9  114.8  114.8  114.7  114.6  114.5  114.4  114.3  114.2  114.1
       114.0  113.8  113.7  113.6  113.4  113.3  113.1  112.9  112.8  112.6
       112.4  112.2  112.0  111.8  111.6  111.3  111.1  110.9  110.6  110.4
       110.1  109.8  109.5  109.2  109.0  108.6  108.3  108.0  107.7  107.3
       107.0  106.6  106.3  105.9  105.5  105.1  104.7  104.3  103.8  103.4
       102.9  102.5  102.0  101.5  101.0  100.5  100.0   99.5   98.9   98.4
        97.8   97.2   96.6   96.0   95.4   94.8   94.1   93.5   92.8   92.1
        91.4   90.7   89.9   89.2   88.4   87.6   86.9   86.0   85.2   84.4
        83.5   82.6   81.7   80.8   79.9   78.9   78.0   77.0   76.0   75.0



  -------------------------------------------------------------------------------------
  VOLUMETRIC BUDGET FOR ENTIRE MODEL AT END OF TIME STEP   30 IN STRESS PERIOD     50
  -------------------------------------------------------------------------------------

     CUMULATIVE VOLUMES      L**3       RATES FOR THIS TIME STEP      L**3/T
     ------------------                 ------------------------

           IN:                                      IN:
           ---                                      ---
             STORAGE =    18276221.8138               STORAGE =           0.1496
       CONSTANT HEAD =           0.0000         CONSTANT HEAD =           0.0000
     HEAD DEP BOUNDS =           0.0000       HEAD DEP BOUNDS =           0.0000
      STREAM LEAKAGE =    35417197.0810        STREAM LEAKAGE =       3.3331E-02

            TOTAL IN =    53693418.8948              TOTAL IN =           0.1829

          OUT:                                     OUT:
          ----                                     ----
             STORAGE =    17087713.4921               STORAGE =           0.0000
       CONSTANT HEAD =           0.0000         CONSTANT HEAD =           0.0000
     HEAD DEP BOUNDS =    36605713.3148       HEAD DEP BOUNDS =           0.1829
      STREAM LEAKAGE =           0.0000        STREAM LEAKAGE =           0.0000

           TOTAL OUT =    53693426.8069             TOTAL OUT =           0.1829

            IN - OUT =          -7.9121              IN - OUT =      -2.5269E-07

 PERCENT DISCREPANCY =          -0.00     PERCENT DISCREPANCY =          -0.00


          TIME SUMMARY AT END OF TIME STEP    30 IN STRESS PERIOD     50
                    SECONDS     MINUTES      HOURS       DAYS        YEARS
                    -----------------------------------------------------------
   TIME STEP LENGTH 2.49961E+05  4166.0      69.434      2.8931     7.92080E-03
 STRESS PERIOD TIME 2.59200E+06  43200.      720.00      30.000     8.21355E-02
         TOTAL TIME 1.29600E+08 2.16000E+06  36000.      1500.0      4.1068    
 

 Final Remark:

   The solver successfully met the user supplied convergence criteria, HCLOSE and RCLOSE, for all 1500 time steps.

   Please check the "VOLUMETRIC BUDGET FOR ENTIRE MODEL" to ensure that mass rate balance errors are acceptable for all time steps.

   The cumulative mass error for the entire simulation is 0.00 %




 Simulation finished at  


 Which had an elapsed run time of: 0.0 seconds


    OneWater Simulation Now Complete


