
      MMMMMMM                                       MM      MMM     MM
    MMM     MMM    MM      M   MMMMMMMM             LM     DM M     ML     MM     MMMMMMMMM  MMMMMMMM  MMMMMMMM
   MM         MM   MMM     M   MM                    MM    MM M     M     MMMM        M      M         MM     NM
   MM         MM   MM M    M   MM                    MM    M  MM   MM    MM  MM       M      M         MM      M
   MM         MM   MM  M   M   MMMMMMMM               MN  MM   M   MM   MM    MM      M      MMMMMMM   MMMMMMMMM
   MM         MM   MM   M  M   MM         MMMMMMM     MM  M    MM MM    MMMMMMMM      M      M         MM   MM
   MM         MM   MM    M M   MM                     LM MM    NM MM   MM      MM     M      M         MM    MM
    MM       NM    MM     MM   MM                      M M      M M   MN        MM    M      M         MM     MM
     MMMMMMMMN     MM      M   MMMMMMMM                7MM      7MM  MN          MM   M      MMMMMMMM  MM      MM


 MODFLOW-OWHM v2.0.01  


                        MODFLOW
            ONE-WATER HYDROLOGIC-FLOW MODEL

    U.S. GEOLOGICAL SURVEY MODULAR FINITE-DIFFERENCE 
           CONJUNCTIVE USE SIMULATION PROGRAM

                     Version 2.0

 Release: 01          4/23/2020

 Includes:
          MODFLOW-2005 Version 1.12.0   02/03/2017
          MODFLOW-FMP  Version 4.00.0   04/23/2017
          MODFLOW-SWR  Version 1.04.0   09/15/2016
          MODFLOW-SWI  Version 2.00.0   07/22/2013
          MODFLOW-LGR  Version 2.00.0   09/19/2013
          MODFLOW-NWT  Version 1.2.0    03/01/2020
          MODFLOW-CFP  Version 1.09.57  09/12/2017


 OneWater Simulation Initiated at 


 LIST FILE: ./output/tr2k_s3.lst
      UNIT: 2

OPENING DATA FILES [DATA AND DATA(BINARY)]

OPENED DATA FILE ON UNIT     21 WITH FILENAME OF: ./output/tr2k_s3.hed
OPENED DATA FILE ON UNIT     22 WITH FILENAME OF: ./output/tr2k_s3.ddn
OPENED DATA FILE ON UNIT     41 WITH FILENAME OF: ./output/tr2k_s3.sbs
OPENED DATA FILE ON UNIT     42 WITH FILENAME OF: ./output/tr2k_s3.cmp

OPENING PACKAGES

BAS6 PACKAGE OPENED.
DIS  PACKAGE OPENED.
BCF  PACKAGE OPENED.
WEL  PACKAGE OPENED.
SIP  PACKAGE OPENED.
OC   PACKAGE OPENED.
SUB  PACKAGE OPENED.

NOTIFICATION: A FILE UNIT NUMBER WAS FOUND FOR EITHER THE LIST FILE OR A PACAKGE.
IT WILL BE USED EVEN THOUGH UNIT NUMBERS FOR THE LIST FILE AND PACKAGES ARE NOW OPTIONAL.
[IT IS RECOMMENDED TO STILL USE A UNIT NUMBER FOR DATA and DATA(BINARY) ]


 BAS -- BASIC PACKAGE, VERSION OWHM INPUT READ FROM UNIT     1
 
MODFLOW was compiled using uniform precision (Precision => Number of meaningful digits in numbers)
Precision of REAL and DOUBLE PRECISION variables: 15

 DISCRETIZATION INPUT DATA READ FROM UNIT   10

-- READING DIS PACKAGE INPUT --

# tr2k_s3
# MODFLOW-2005 Example problem documented in:
#   Harbaugh, A.W., 2005, MODFLOW-2005, the U.S. Geological Survey modular ground-water model -- the Ground-Water Flow Process: U.S. Geological Survey Techniques and Methods 6-A16.
#   Harbaugh, A.W., Banta, E.R., Hill, M.C. and McDonald, M.G., 2000, MODFLOW-2000, The U.S. Geological Survey Modular Ground-Water Model - User Guide to Modularization Concepts and the Ground-Water Flow Process: U.S Geological Survey Open-File Report 2000-92, 121 p., https://doi.org/10.3133/ofr200092
#   Höffmann, J., Leake, S.A., Galloway, D.L., and Wilson, A.M., 2003, MODFLOW-2000 Ground-Water Model--User Guide to the Subsidence and Aquifer-System Compaction (SUB) Package: U.S. Geological Survey Open-File Report 03-233, 44 p.
#
# Input modified for MODFLOW-OWHM by including the BAS options:
#    NOFREE  BUDGETDB ./output/bcf2ss_VolumetricBudget.txt  CUMULATIVE_HEAD_CHANGE ./output/bcf2ss_CumHCHG.txt  PRINT_HEAD NPER ./output/bcf2ss_Head.txt
#
#-----------------------------------------------------------------------------------------------------------------------------------------------------


*** DIS COORDINATE SYSTEM NOT SEPECIFIED ***
DEFAULT VALUES APPLIED ARE 0° ROTATION
WITH THE ORIGIN (0,0) LOCATED AT THE MODEL'S LOWER LEFT CORNER




DIS COORDINATE SYSTEM SEPECIFIED WITH:
GRID ROTATION OF 0.0°
WITH THE ORIGIN LOCATED AT THE OUTER MOST CORNER OF MODEL CELL [10,1] WITH:
X-COORDINATE:0.0
Y-COORDINATE:0.0
    3 LAYERS        10 ROWS        10 COLUMNS
     31 STRESS PERIOD(S) IN SIMULATION
 MODEL TIME UNIT IS DAYS
 MODEL LENGTH UNIT IS UNDEFINED
  Confining bed flag for each layer:
   0   0   0

                     DELR =   1000.00    

                     DELC =   2000.00    

 TOP ELEVATION OF LAYER 1 =   0.00000    

   MODEL LAYER BOTTOM EL. =  -100.000     FOR LAYER   1

   MODEL LAYER BOTTOM EL. =  -150.000     FOR LAYER   2

   MODEL LAYER BOTTOM EL. =  -250.000     FOR LAYER   3


 STRESS PERIOD     LENGTH       TIME STEPS     MULTIPLIER FOR DELT    SS FLAG  (OPTIONAL TIME STEP LENGTH)
 ---------------------------------------------------------------------------------------------------
        1         1.000000          1                  1.00000         SS
        2         365.3000          6                  1.30000         TR
        3         365.3000          6                  1.30000         TR
        4         365.3000          6                  1.30000         TR
        5         365.3000          6                  1.30000         TR
        6         365.3000          6                  1.30000         TR
        7         365.3000          6                  1.30000         TR
        8         365.3000          6                  1.30000         TR
        9         365.3000          6                  1.30000         TR
       10         365.3000          6                  1.30000         TR
       11         365.3000          6                  1.30000         TR
       12         365.3000          6                  1.30000         TR
       13         365.3000          6                  1.30000         TR
       14         365.3000          6                  1.30000         TR
       15         365.3000          6                  1.30000         TR
       16         365.3000          6                  1.30000         TR
       17         365.3000          6                  1.30000         TR
       18         365.3000          6                  1.30000         TR
       19         365.3000          6                  1.30000         TR
       20         365.3000          6                  1.30000         TR
       21         365.3000          6                  1.30000         TR
       22         365.3000          6                  1.30000         TR
       23         365.3000          6                  1.30000         TR
       24         365.3000          6                  1.30000         TR
       25         365.3000          6                  1.30000         TR
       26         365.3000          6                  1.30000         TR
       27         365.3000          6                  1.30000         TR
       28         365.3000          6                  1.30000         TR
       29         365.3000          6                  1.30000         TR
       30         365.3000          6                  1.30000         TR
       31         365.3000          6                  1.30000         TR

 COMBINED STEADY-STATE AND TRANSIENT SIMULATION




-- READING BAS PACKAGE INPUT --

# tr2k_s3
# MODFLOW-2005 Example problem documented in:
#   Harbaugh, A.W., 2005, MODFLOW-2005, the U.S. Geological Survey modular ground-water model -- the Ground-Water Flow Process: U.S. Geological Survey Techniques and Methods 6-A16.
#   Harbaugh, A.W., Banta, E.R., Hill, M.C. and McDonald, M.G., 2000, MODFLOW-2000, The U.S. Geological Survey Modular Ground-Water Model - User Guide to Modularization Concepts and the Ground-Water Flow Process: U.S Geological Survey Open-File Report 2000-92, 121 p., https://doi.org/10.3133/ofr200092
#   Höffmann, J., Leake, S.A., Galloway, D.L., and Wilson, A.M., 2003, MODFLOW-2000 Ground-Water Model--User Guide to the Subsidence and Aquifer-System Compaction (SUB) Package: U.S. Geological Survey Open-File Report 03-233, 44 p.
#
# Input modified for MODFLOW-OWHM by including the BAS options:
#    NOFREE  BUDGETDB ./output/tr2k_s3_VolumetricBudget.txt  CUMULATIVE_HEAD_CHANGE ./output/tr2k_s3_CumHCHG.txt  PRINT_HEAD NPER ./output/tr2k_s3_Head.txt
#
#-----------------------------------------------------------------------------------------------------------------------------------------------------
#Sample Problem 3
#SUB1 documentation


 THE BAS PACKAGE NOW DEFAULTS TO FREE FORMAT.
 USE OPTION "NOFREE" TO DISABLE FREE FORMAT.



########################################################################################################

                           WARNING_MESSAGE

         THE FOLLOWING COMMENTS WERE PASSED TO THE WARNING ROUTINE

THE WARNING IS BELIEVED TO HAVE ORIGINATED FROM THE FOLLOWING FILE:
"examples\mf-2005\tr2k_s3.ba6"

THE GUESSED LINE THAT THE WARNING OCCURED ON IS:
"NOFREE  BUDGETDB ./output/tr2k_s3_VolumetricBudget.txt  CUMULATIVE_HEAD_CHANGE ./output/tr2k_s3_CumHCHG.txt  PRINT_HEAD NPER ./output/tr2k_s3_Head.txt"

THE DESRIPTION OF THE WARNING IS:

FOUND BAS PACKAGE OPTION KEYWORDS ALONG PACKAGE "OPTIONS LINE" (ie Data Set 1)

The BAS package options should be within an "OPTIONS BLOCK" rather than along the first line of input.

The BAS package will attempt to read the options line, but some advanced options may fail to load due to their complex input,
For example the option "SHIFT_STRT" uses ULOAD to read NLAY shift values, which would crash under certain ULOAD keyword combinations.

Also note that if any of the options specify a GENERIC_OUTPUT file, 
then there may be additional warnings about a BAS OPTION not being a recognized GENERIC_OUTPUT post-keyword.
These warnings can be ignored, since its a post-keyword warning pertaining to the GENERIC_OUTPUT file and 
the BAS OPTION is still processed by the BAS package.

It is recommended for new models to use "BEGIN OPTIONS" and then have one option per line and
end the options block with the word "END" in place of single line of options.

For example:

BEGIN OPTIONS

  START_DATE  4/23/1901
  SHOWPROGRESS
  NOCBC
  BUDGETDB ./output/VolumetricBudget.txt
  PAUSE

END OPTIONS

             - Note that "OPTIONS BLOCK" maybe empty or entirely not present,
               nor is it required to specify an "OPTIONS LINE"

             - DO NOT specify both an "OPTIONS BLOCK" and "OPTIONS LINE" at the same time.

########################################################################################################



 NOW READING BAS OPTIONS

 FOUND OPTION: NOFREE
     THE FREE FORMAT OPTION IS DISABLED (INPUT USES FIXED FORMATTED READ)

 FOUND OPTION: BUDGETDB


########################################################################################################

                           WARNING_MESSAGE

         THE FOLLOWING COMMENTS WERE PASSED TO THE WARNING ROUTINE

THE WARNING IS BELIEVED TO HAVE ORIGINATED FROM THE FOLLOWING FILE:
"examples\mf-2005\tr2k_s3.ba6"

THE GUESSED LINE THAT THE WARNING OCCURED ON IS:
"NOFREE  BUDGETDB ./output/tr2k_s3_VolumetricBudget.txt  CUMULATIVE_HEAD_CHANGE ./output/tr2k_s3_CumHCHG.txt  PRINT_HEAD NPER ./output/tr2k_s3_Head.txt"

THE DESRIPTION OF THE WARNING IS:

...CHECK_FOR_POST_KEY WARNINGS...
 THE FOLLOWING MESSAGES WERE PASSED WHILE CHECKING FOR ANY ADDITIONAL KEYWORDS ON LOADED LINE.


FAILED TO IDENTIFY THE FOLLOWING POST-KEYWORD: 

"CUMULATIVE_HEAD_CHANGE"

IT WILL BE IGNORED AND NO FURTHER KEYWORDS WILL BE CHECKED/INCLUDED TO THE RIGHT OF IT.
TO SUPRESS THIS WARNING PLEASE PLACE A "#" SYMBOL TO THE LEFT OF THE WORD TO INDICATE EVERYTHING TO THE RIGHT OF THE # IS A COMMENT

########################################################################################################



 FOUND OPTION: CUMULATIVE_HEAD_CHANGE
    THIS OPTION IS ONLY USEFUL FOR MODEL RESULT COMPARISON WITH DIFFERENT CODE COMPARISONS.



########################################################################################################

                           WARNING_MESSAGE

         THE FOLLOWING COMMENTS WERE PASSED TO THE WARNING ROUTINE

THE WARNING IS BELIEVED TO HAVE ORIGINATED FROM THE FOLLOWING FILE:
"examples\mf-2005\tr2k_s3.ba6"

THE GUESSED LINE THAT THE WARNING OCCURED ON IS:
"NOFREE  BUDGETDB ./output/tr2k_s3_VolumetricBudget.txt  CUMULATIVE_HEAD_CHANGE ./output/tr2k_s3_CumHCHG.txt  PRINT_HEAD NPER ./output/tr2k_s3_Head.txt"

THE DESRIPTION OF THE WARNING IS:

...CHECK_FOR_POST_KEY WARNINGS...
 THE FOLLOWING MESSAGES WERE PASSED WHILE CHECKING FOR ANY ADDITIONAL KEYWORDS ON LOADED LINE.


FAILED TO IDENTIFY THE FOLLOWING POST-KEYWORD: 

"PRINT_HEAD"

IT WILL BE IGNORED AND NO FURTHER KEYWORDS WILL BE CHECKED/INCLUDED TO THE RIGHT OF IT.
TO SUPRESS THIS WARNING PLEASE PLACE A "#" SYMBOL TO THE LEFT OF THE WORD TO INDICATE EVERYTHING TO THE RIGHT OF THE # IS A COMMENT

########################################################################################################



 FOUND OPTION: PRINT_HEAD    SP    TS   FILE
                             31     6   ./output/tr2k_s3_Head.txt

 THE MAX STORAGE FOR PROPERTIES DEFINED BY PARAMETERS IS: 
 MAX STORAGE OF PARAMETERS (MXPAR)  IS       2000
 MAX STORAGE OF INSTANCES  (MXINST) IS      50000
 MAX STORAGE OF CLUSTERS   (MXCLST) IS    2000000




                     BOUNDARY ARRAY FOR LAYER   1
 READING ON UNIT    1 WITH FORMAT: (20I4)              

        1   2   3   4   5   6   7   8   9  10
 ............................................
   1    3   3   1   1   1   1   1   1   3   3
   2    3   2   2   2   2   2   2   2   2   3
   3    3   2   2   2   2   5   5   2   2   3
   4    3   2   2   2   2   5   5   2   2   3
   5    1   2   2   2   2   2   2   2   2   1
   6    1   2   2   2   2   2   2   2   2   1
   7    1   2   2   2   2   2   2   2   2   1
   8    1   2   2   2   2   2   2   2   2   1
   9    1   2   2   2   2   2   2   2   2   1
  10    1   1   1  -4  -4  -4  -4   1   1   1

           BOUNDARY ARRAY =              1 FOR LAYER   2

           BOUNDARY ARRAY =              1 FOR LAYER   3

 AQUIFER HEAD WILL BE SET TO 999.0 AT ALL NO-FLOW NODES (IBOUND=0).


             INITIAL HEAD =   0.00000     FOR LAYER   1

             INITIAL HEAD =   0.00000     FOR LAYER   2

             INITIAL HEAD =   0.00000     FOR LAYER   3

-- READING OC PACKAGE INPUT --

# tr2k_s3
# MODFLOW-2005 Example problem documented in:
#   Harbaugh, A.W., 2005, MODFLOW-2005, the U.S. Geological Survey modular ground-water model -- the Ground-Water Flow Process: U.S. Geological Survey Techniques and Methods 6-A16.
#   Harbaugh, A.W., Banta, E.R., Hill, M.C. and McDonald, M.G., 2000, MODFLOW-2000, The U.S. Geological Survey Modular Ground-Water Model - User Guide to Modularization Concepts and the Ground-Water Flow Process: U.S Geological Survey Open-File Report 2000-92, 121 p., https://doi.org/10.3133/ofr200092
#   Höffmann, J., Leake, S.A., Galloway, D.L., and Wilson, A.M., 2003, MODFLOW-2000 Ground-Water Model--User Guide to the Subsidence and Aquifer-System Compaction (SUB) Package: U.S. Geological Survey Open-File Report 03-233, 44 p.
#
#-----------------------------------------------------------------------------------------------------------------------------------------------------


 OUTPUT CONTROL IS SPECIFIED ONLY AT TIME STEPS FOR WHICH OUTPUT IS DESIRED
 IBOUND WILL BE SAVED ON UNIT   50
 HEAD PRINT FORMAT CODE IS   4    DRAWDOWN PRINT FORMAT CODE IS   5
 HEADS WILL BE SAVED ON UNIT   21    DRAWDOWNS WILL BE SAVED ON UNIT   22  WATER BUDGETs WILL BE SAVED ON UNIT 

 BCF -- BLOCK-CENTERED FLOW PACKAGE, VERSION 7, 5/2/2005
         INPUT READ FROM UNIT 11

-- READING BCF PACKAGE INPUT --

# tr2k_s3
# MODFLOW-2005 Example problem documented in:
#   Harbaugh, A.W., 2005, MODFLOW-2005, the U.S. Geological Survey modular ground-water model -- the Ground-Water Flow Process: U.S. Geological Survey Techniques and Methods 6-A16.
#   Harbaugh, A.W., Banta, E.R., Hill, M.C. and McDonald, M.G., 2000, MODFLOW-2000, The U.S. Geological Survey Modular Ground-Water Model - User Guide to Modularization Concepts and the Ground-Water Flow Process: U.S Geological Survey Open-File Report 2000-92, 121 p., https://doi.org/10.3133/ofr200092
#   Höffmann, J., Leake, S.A., Galloway, D.L., and Wilson, A.M., 2003, MODFLOW-2000 Ground-Water Model--User Guide to the Subsidence and Aquifer-System Compaction (SUB) Package: U.S. Geological Survey Open-File Report 03-233, 44 p.
#
#      -Comments are preceded by a # sign
#
#-----------------------------------------------------------------------------------------------------------------------------------------------------

 TRANSIENT SIMULATION
 HEAD AT CELLS THAT CONVERT TO DRY=   0.0000    
 WETTING CAPABILITY IS NOT ACTIVE
      LAYER  LAYER-TYPE CODE     INTERBLOCK T
      --------------------------------------------
         1            1          0 -- HARMONIC    
         2            0          0 -- HARMONIC    
         3            0          0 -- HARMONIC    

 COLUMN TO ROW ANISOTROPY =   1.00000    

     PRIMARY STORAGE COEF =  0.100000     FOR LAYER   1

    HYD. COND. ALONG ROWS =   20.0000     FOR LAYER   1

 VERT HYD COND /THICKNESS =  3.000000E-06 FOR LAYER   1

     PRIMARY STORAGE COEF =  6.560000E-05 FOR LAYER   2



               TRANSMIS. ALONG ROWS FOR LAYER   2
 READING ON UNIT   11 WITH FORMAT: (10F7.0)            

            1           2           3           4           5           6           7           8           9          10
 ........................................................................................................................
   1    1000.       1000.       1000.       1000.       1000.       1000.       1000.       1000.       1000.       1000.    
   2    1000.      0.5000      0.5000      0.5000      0.5000      0.5000      0.5000      0.5000      0.5000       1000.    
   3    1000.      0.5000      0.5000      0.5000      0.5000      0.5000      0.5000      0.5000      0.5000       1000.    
   4    1000.      0.5000      0.5000      0.5000      0.5000      0.5000      0.5000      0.5000      0.5000       1000.    
   5    1000.      0.5000      0.5000      0.5000      0.5000      0.5000      0.5000      0.5000      0.5000       1000.    
   6    1000.      0.5000      0.5000      0.5000      0.5000      0.5000      0.5000      0.5000      0.5000       1000.    
   7    1000.      0.5000      0.5000      0.5000      0.5000      0.5000      0.5000      0.5000      0.5000       1000.    
   8    1000.      0.5000      0.5000      0.5000      0.5000      0.5000      0.5000      0.5000      0.5000       1000.    
   9    1000.      0.5000      0.5000      0.5000      0.5000      0.5000      0.5000      0.5000      0.5000       1000.    
  10    1000.       1000.       1000.       1000.       1000.       1000.       1000.       1000.       1000.       1000.    

 VERT HYD COND /THICKNESS =  3.000000E-06 FOR LAYER   2

     PRIMARY STORAGE COEF =  2.620000E-04 FOR LAYER   3

     TRANSMIS. ALONG ROWS =   1000.00     FOR LAYER   3

-- READING WEL PACKAGE INPUT --

# tr2k_s3
# MODFLOW-2005 Example problem documented in:
#   Harbaugh, A.W., 2005, MODFLOW-2005, the U.S. Geological Survey modular ground-water model -- the Ground-Water Flow Process: U.S. Geological Survey Techniques and Methods 6-A16.
#   Harbaugh, A.W., Banta, E.R., Hill, M.C. and McDonald, M.G., 2000, MODFLOW-2000, The U.S. Geological Survey Modular Ground-Water Model - User Guide to Modularization Concepts and the Ground-Water Flow Process: U.S Geological Survey Open-File Report 2000-92, 121 p., https://doi.org/10.3133/ofr200092
#   Höffmann, J., Leake, S.A., Galloway, D.L., and Wilson, A.M., 2003, MODFLOW-2000 Ground-Water Model--User Guide to the Subsidence and Aquifer-System Compaction (SUB) Package: U.S. Geological Survey Open-File Report 03-233, 44 p.
#
#      -Comments are preceded by a # sign
#
#-----------------------------------------------------------------------------------------------------------------------------------------------------


WEL -- WELL PACKAGE, VERSION OWHM INPUT READ FROM UNIT 12

 No named parameters

 NO TABFILE SPECIFIED FOR PACKAGE WEL  


 NO LINEFEEDS ARE SPECIFIED FOR PACKAGE WEL  


MAXIMUM OF 14 ACTIVE WELLS AT ONE TIME


0 Well parameters

SUB7 -- SUBSIDENCE PACKAGE, VERSION OWHM INPUT READ FROM UNIT 19

         NUMBER OF SYSTEMS OF NO-DELAYED INTERBEDS:  3
              NUMBER OF SYSTEMS OF DELAY INTERBEDS:  2
                          NUMBER OF MATERIAL ZONES:  1
                    NUMBER OF NODES IN EACH STRING: 20
 RESTART INFORMATION WILL NOT BE SAVED FOR DELAY INTERBEDS
 RESTART INFORMATION WILL NOT BE READ FOR DELAY INTERBEDS
 OUTPUT CONTROL RECORDS FOR SUB PACKAGE WILL BE READ EACH TIME STEP.

 MODEL LAYER ASSIGNMENTS FOR EACH OF  3 NO-DELAY SYSTEMS OF INTERBEDS:
    1   2   3

 MODEL LAYER ASSIGNMENTS FOR EACH OF  2 DELAY SYSTEMS OF INTERBEDS:
    1   3

  SYSTEM   1 OF DELAY BEDS:

 NUMBER OF BEDS IN SYSTEM =   7.63500     FOR LAYER   1

  SYSTEM   2 OF DELAY BEDS:

 NUMBER OF BEDS IN SYSTEM =   17.7180     FOR LAYER   3

  SYSTEM   1 OF NO-DELAY BEDS:

    PRECONSOLIDATION HEAD =  -7.00000     FOR LAYER   1

  SYSTEM   1 OF NO-DELAY BEDS:

 ELASTIC INTERBED STORAGE =  2.100000E-04 FOR LAYER   1

  SYSTEM   1 OF NO-DELAY BEDS:

  VIRGIN INTERBED STORAGE =  9.120000E-03 FOR LAYER   1

  SYSTEM   1 OF NO-DELAY BEDS:

  ND STRT ELAS COMPACTION =   0.00000     FOR LAYER   1

  ND STRT VIRG COMPACTION =   0.00000     FOR LAYER   1

  SYSTEM   2 OF NO-DELAY BEDS:

    PRECONSOLIDATION HEAD =  -7.00000     FOR LAYER   2

  SYSTEM   2 OF NO-DELAY BEDS:

 ELASTIC INTERBED STORAGE =  1.500000E-04 FOR LAYER   2

  SYSTEM   2 OF NO-DELAY BEDS:



            VIRGIN INTERBED STORAGE FOR LAYER   2
 READING ON UNIT   19 WITH FORMAT: (10F7.0)            

            1           2           3           4           5           6           7           8           9          10
 ........................................................................................................................
   1   0.7600E-02  0.7600E-02  0.7600E-02  0.7600E-02  0.7600E-02  0.7600E-02  0.7600E-02  0.7600E-02  0.7600E-02  0.7600E-02
   2   0.7600E-02  0.1500E-01  0.1500E-01  0.1500E-01  0.1500E-01  0.1500E-01  0.1500E-01  0.1500E-01  0.1500E-01  0.7600E-02
   3   0.7600E-02  0.1500E-01  0.1500E-01  0.1500E-01  0.1500E-01  0.1500E-01  0.1500E-01  0.1500E-01  0.1500E-01  0.7600E-02
   4   0.7600E-02  0.1500E-01  0.1500E-01  0.1500E-01  0.1500E-01  0.1500E-01  0.1500E-01  0.1500E-01  0.1500E-01  0.7600E-02
   5   0.7600E-02  0.1500E-01  0.1500E-01  0.1500E-01  0.1500E-01  0.1500E-01  0.1500E-01  0.1500E-01  0.1500E-01  0.7600E-02
   6   0.7600E-02  0.1500E-01  0.1500E-01  0.1500E-01  0.1500E-01  0.1500E-01  0.1500E-01  0.1500E-01  0.1500E-01  0.7600E-02
   7   0.7600E-02  0.1500E-01  0.1500E-01  0.1500E-01  0.1500E-01  0.1500E-01  0.1500E-01  0.1500E-01  0.1500E-01  0.7600E-02
   8   0.7600E-02  0.1500E-01  0.1500E-01  0.1500E-01  0.1500E-01  0.1500E-01  0.1500E-01  0.1500E-01  0.1500E-01  0.7600E-02
   9   0.7600E-02  0.1500E-01  0.1500E-01  0.1500E-01  0.1500E-01  0.1500E-01  0.1500E-01  0.1500E-01  0.1500E-01  0.7600E-02
  10   0.7600E-02  0.7600E-02  0.7600E-02  0.7600E-02  0.7600E-02  0.7600E-02  0.7600E-02  0.7600E-02  0.7600E-02  0.7600E-02

  SYSTEM   2 OF NO-DELAY BEDS:

  ND STRT ELAS COMPACTION =   0.00000     FOR LAYER   2

  ND STRT VIRG COMPACTION =   0.00000     FOR LAYER   2

  SYSTEM   3 OF NO-DELAY BEDS:

    PRECONSOLIDATION HEAD =  -7.00000     FOR LAYER   3

  SYSTEM   3 OF NO-DELAY BEDS:

 ELASTIC INTERBED STORAGE =  4.200000E-04 FOR LAYER   3

  SYSTEM   3 OF NO-DELAY BEDS:

  VIRGIN INTERBED STORAGE =  1.824000E-02 FOR LAYER   3

  SYSTEM   3 OF NO-DELAY BEDS:

  ND STRT ELAS COMPACTION =   0.00000     FOR LAYER   3

  ND STRT VIRG COMPACTION =   0.00000     FOR LAYER   3

 MATERIAL PROPERTIES OF INTERBEDS WITH DELAY PROPERTIES

   ZONE        HYDRAULIC           ELASTIC            INELASTIC       
  NUMBER      CONDUCTIVITY     SPECIFIC STORAGE    SPECIFIC STORAGE   
 ---------------------------------------------------------------------
    1        0.10000E-05         0.60000E-05         0.60000E-03

  SYSTEM   1 OF DELAY BEDS:



                DELAY STARTING HEAD FOR LAYER   1
 READING ON UNIT   19 WITH FORMAT: (10F7.0)            

            1           2           3           4           5           6           7           8           9          10
 ........................................................................................................................
   1    22.66       22.31       21.66       21.25       21.05       21.05       21.25       21.66       22.31       22.66    
   2    21.62       21.13       20.71       20.42       20.27       20.27       20.42       20.71       21.13       21.62    
   3    20.11       19.63       19.27       19.03       18.91       18.91       19.03       19.27       19.63       20.11    
   4    18.05       17.62       17.33       17.14       17.05       17.05       17.14       17.33       17.62       18.05    
   5    15.12       15.03       14.93       14.85       14.81       14.81       14.85       14.93       15.03       15.12    
   6    12.47       12.44       12.40       12.37       12.35       12.35       12.37       12.40       12.44       12.47    
   7    9.870       9.845       9.805       9.766       9.742       9.742       9.766       9.805       9.845       9.870    
   8    7.297       7.235       7.133       7.029       6.970       6.970       7.029       7.133       7.235       7.297    
   9    4.891       4.709       4.383       4.017       3.864       3.864       4.017       4.383       4.709       4.891    
  10    3.135       2.680       1.696       0.000       0.000       0.000       0.000       1.696       2.680       3.135    

  SYSTEM   1 OF DELAY BEDS:

    DELAY PRECOLSOL. HEAD =  -7.00000     FOR LAYER   1

  SYSTEM   1 OF DELAY BEDS:

   D STRT ELAS COMPACTION =   0.00000     FOR LAYER   1

  SYSTEM   1 OF DELAY BEDS:

   D STRT VIRG COMPACTION =   0.00000     FOR LAYER   1

  SYSTEM   1 OF DELAY BEDS:

 DELAY INTERBED THICKNESS =   5.89400     FOR LAYER   1

  SYSTEM   1 OF DELAY BEDS:

    MATERIAL ZONE INDICES =              1 FOR LAYER   1

  SYSTEM   2 OF DELAY BEDS:



                DELAY STARTING HEAD FOR LAYER   3
 READING ON UNIT   19 WITH FORMAT: (10F7.0)            

            1           2           3           4           5           6           7           8           9          10
 ........................................................................................................................
   1    13.29       13.29       13.30       13.30       13.30       13.30       13.30       13.30       13.29       13.29    
   2    13.27       13.28       13.28       13.28       13.28       13.28       13.28       13.28       13.28       13.27    
   3    13.21       13.22       13.22       13.22       13.22       13.22       13.22       13.22       13.22       13.21    
   4    13.13       13.13       13.13       13.14       13.14       13.14       13.14       13.13       13.13       13.13    
   5    13.02       13.03       13.03       13.03       13.03       13.03       13.03       13.03       13.03       13.02    
   6    12.91       12.91       12.91       12.91       12.91       12.91       12.91       12.91       12.91       12.91    
   7    12.80       12.80       12.80       12.80       12.80       12.80       12.80       12.80       12.80       12.80    
   8    12.71       12.70       12.70       12.70       12.70       12.70       12.70       12.70       12.70       12.71    
   9    12.64       12.64       12.63       12.63       12.63       12.63       12.63       12.63       12.64       12.64    
  10    12.61       12.61       12.61       12.61       12.61       12.61       12.61       12.61       12.61       12.61    

  SYSTEM   2 OF DELAY BEDS:

    DELAY PRECOLSOL. HEAD =  -7.00000     FOR LAYER   3

  SYSTEM   2 OF DELAY BEDS:

   D STRT ELAS COMPACTION =   0.00000     FOR LAYER   3

  SYSTEM   2 OF DELAY BEDS:

   D STRT VIRG COMPACTION =   0.00000     FOR LAYER   3

  SYSTEM   2 OF DELAY BEDS:

 DELAY INTERBED THICKNESS =   5.08000     FOR LAYER   3

  SYSTEM   2 OF DELAY BEDS:

    MATERIAL ZONE INDICES =              1 FOR LAYER   3

             SUBSIDENCE PRINT FORMAT IS NUMBER   0
                 UNIT FOR SAVING SUBSIDENCE IS  41
    COMPACTION BY LAYER PRINT FORMAT IS NUMBER   0
        UNIT FOR SAVING COMPACTION BY LAYER IS  42
   COMPACTION BY SYSTEM PRINT FORMAT IS NUMBER   0
       UNIT FOR SAVING COMPACTION BY SYSTEM IS  42
  VERTICAL DISPLACEMENT PRINT FORMAT IS NUMBER   0
      UNIT FOR SAVING VERTICAL DISPLACEMENT IS  41
 NO-DELAY CRITICAL HEAD PRINT FORMAT IS NUMBER   0
     UNIT FOR SAVING NO-DELAY CRITICAL HEAD IS  43
    DELAY CRITICAL HEAD PRINT FORMAT IS NUMBER   0
        UNIT FOR SAVING DELAY CRITICAL HEAD IS  43
  ELAS COMPACT BY LAYER PRINT FORMAT IS NUMBER   0
      UNIT FOR SAVING ELAS COMPACT BY LAYER IS  76
INELAS COMPACT BY LAYER PRINT FORMAT IS NUMBER   0
   UNIT FOR SAVING INELAS COMPACT BY LAYER  IS   0
  ELAS COMPACT BY SYSTM PRINT FORMAT IS NUMBER   0
      UNIT FOR SAVING ELAS COMPACT BY SYSTM IS   0
INELAS COMPACT BY SYSTM PRINT FORMAT IS NUMBER   0
    UNIT FOR SAVING INELAS COMPACT BY SYSTM IS   0

 SIP -- STRONGLY-IMPLICIT PROCEDURE SOLUTION PACKAGE
                    VERSION OWHM INPUT READ FROM UNIT   13

-- READING SIP PACKAGE INPUT --

# tr2k_s3
# MODFLOW-2005 Example problem documented in:
#   Harbaugh, A.W., 2005, MODFLOW-2005, the U.S. Geological Survey modular ground-water model -- the Ground-Water Flow Process: U.S. Geological Survey Techniques and Methods 6-A16.
#   Harbaugh, A.W., Banta, E.R., Hill, M.C. and McDonald, M.G., 2000, MODFLOW-2000, The U.S. Geological Survey Modular Ground-Water Model - User Guide to Modularization Concepts and the Ground-Water Flow Process: U.S Geological Survey Open-File Report 2000-92, 121 p., https://doi.org/10.3133/ofr200092
#   Höffmann, J., Leake, S.A., Galloway, D.L., and Wilson, A.M., 2003, MODFLOW-2000 Ground-Water Model--User Guide to the Subsidence and Aquifer-System Compaction (SUB) Package: U.S. Geological Survey Open-File Report 03-233, 44 p.
#
#      -Comments are preceded by a # sign
#
#-----------------------------------------------------------------------------------------------------------------------------------------------------

 MAXIMUM OF 120 ITERATIONS ALLOWED FOR CLOSURE
  5 ITERATION PARAMETERS

          SOLUTION BY THE STRONGLY IMPLICIT PROCEDURE
          -------------------------------------------
 MAXIMUM ITERATIONS ALLOWED FOR CLOSURE =      120
                 ACCELERATION PARAMETER =     1.0000    
      HEAD CHANGE CRITERION FOR CLOSURE =    0.10000E-04
      SIP HEAD CHANGE PRINTOUT INTERVAL =        1

     CALCULATE ITERATION PARAMETERS FROM MODEL CALCULATED WSEED


########################################################################################################

                           WARNING_MESSAGE

         THE FOLLOWING COMMENTS WERE PASSED TO THE WARNING ROUTINE

THE DESRIPTION OF THE WARNING IS:

DIS PACKAGE: THE GROUND SURFACE ELEVATION WAS NOT SPECIFIED WITH THE KEYWORD "SURFACE_ELEVATION"

BEFORE LOADING THE "TOP" ARRAY FOR LAYER 1
NOR WAS IT DEFINED WITH ANOTHER PACKAGE   (e.g. FMPs GLOBAL DIMENSION KEYWORD "SURFACE_ELEVATION")

OneWater WILL SET THE GROUND SURFACE ELEVATION (GSE)
TO THE TOP ELEVATION OF THE UPPER MOST ACTIVE CELL OR THE DIS TOP OF LAY1.

NOTE THAT SFR DOES USE GSE FOR ALL DIVERSION SEGMENTS
   WHEN "IRDFLG" IS SET TO 2 or -2.

########################################################################################################



1
                            STRESS PERIOD NO.      1, LENGTH =   1.000000    
                            -----------------------------------------------

                              NUMBER OF TIME STEPS =     1

                               MULTIPLIER FOR DELT =     1.000

                            INITIAL TIME STEP SIZE =   1.000000    

PARAMETERS HAVE BEEN USED IN PACKAGES

THE CURRENT STORAGE FOR PARAMETERS IS: 
No. PARAMETER=         0 WITH MAX STORAGE (MXPAR)  OF      2000
No. CLUSTERS =         0 WITH MAX STORAGE (MXCLST) OF   2000000
No. INSTANCES=         0 WITH MAX STORAGE (MXINST) OF     50000

YOU CAN INCREASE/DECREASE STORAGE WITH BAS OPTION:
MAXPARAM  MXPAR  MXCLST MXINST

FYI, YOU CAN REDUCE RAM USUAGE WITH BAS OPTION
(NOTE THE THREE NUMBERS ARE A MINUMUM SIZE):
   MAXPARAM          1         1         1


 WEL PACKAGE STRESS PERIOD INFORMATION [BEFORE APPLICATION OF TABFILES]

 WELL NO.  LAYER   ROW   COL   STRESS RATE         
 --------------------------------------------------
      1      1      1      1   3000.0000    
      2      1      1      2   3000.0000    
      3      1      1      9   3000.0000    
      4      1      1     10   3000.0000    
      5      1      2      1   3000.0000    
      6      1      2     10   3000.0000    
      7      1      3      1   3000.0000    
      8      1      3     10   3000.0000    
      9      1      4      1   3000.0000    
     10      1      4     10   3000.0000    

10 WELLS
 
 SOLVING FOR HEAD 

 AVERAGE SEED = 0.00104234
 MINIMUM SEED = 0.00001229

     5 ITERATION PARAMETERS CALCULATED FROM AVERAGE SEED:

  0.000000E+00 0.820319E+00 0.967715E+00 0.994199E+00 0.998958E+00

    56 ITERATIONS FOR TIME STEP   1 IN STRESS PERIOD    1

 MAXIMUM HEAD CHANGE FOR EACH ITERATION:

    HEAD CHANGE   HEAD CHANGE   HEAD CHANGE   HEAD CHANGE   HEAD CHANGE
  LAYER,ROW,COL LAYER,ROW,COL LAYER,ROW,COL LAYER,ROW,COL LAYER,ROW,COL
 ----------------------------------------------------------------------
      2.671         2.508         5.470         11.54         8.275    
  (  1,  1, 10) (  1,  1, 10) (  1,  1,  1) (  1,  1, 10) (  3,  1,  1)
      2.524         1.287       -0.9950        -2.001        -1.404    
  (  2,  2,  9) (  2, 10,  2) (  1,  7,  3) (  1,  1,  1) (  1,  1,  1)
     0.6811        0.3993        0.2702        0.7622        0.9893    
  (  2,  6,  1) (  2,  1,  2) (  1,  1,  1) (  1,  1, 10) (  3,  1,  1)
    -0.1359        0.9522E-01   -0.7821E-01   -0.1634       -0.1034    
  (  2,  9,  7) (  2, 10,  2) (  1,  7,  3) (  1,  1,  1) (  1,  1,  1)
     0.5098E-01    0.3160E-01    0.2107E-01    0.5953E-01    0.9494E-01
  (  2,  9,  6) (  2,  1,  2) (  1,  1,  1) (  1,  1, 10) (  3,  1,  1)
    -0.1183E-01    0.7216E-02   -0.6377E-02   -0.1338E-01   -0.7858E-02
  (  2,  9,  7) (  2, 10,  2) (  1,  7,  3) (  1,  1,  1) (  1,  1,  1)
     0.4081E-02    0.2552E-02    0.1665E-02    0.4683E-02    0.8297E-02
  (  2,  9,  6) (  2,  1,  2) (  1,  1,  1) (  1,  1, 10) (  3,  1,  1)
    -0.9888E-03    0.5633E-03   -0.5119E-03   -0.1076E-02   -0.6002E-03
  (  2,  9,  7) (  2, 10,  2) (  1,  7,  3) (  1,  1,  1) (  1,  1,  1)
     0.3225E-03    0.2046E-03    0.1308E-03    0.3666E-03    0.6953E-03
  (  2,  9,  6) (  2,  1,  2) (  1,  1,  1) (  1,  1, 10) (  3,  2,  1)
    -0.8069E-04    0.4392E-04   -0.4063E-04   -0.8549E-04    0.5077E-04
  (  2,  9,  7) (  2, 10,  2) (  1,  7,  3) (  1,  1,  1) (  3,  5,  1)
     0.2532E-04    0.1624E-04    0.1022E-04    0.2859E-04    0.5681E-04
  (  2,  9,  6) (  2,  1,  2) (  1,  1,  1) (  1,  1, 10) (  3,  2,  1)
    -0.6480E-05
  (  2,  9,  6)


 OUTPUT CONTROL FOR STRESS PERIOD      1   TIME STEP     1
    PRINT BUDGET
    PRINT HEAD FOR ALL LAYERS
    SAVE HEAD FOR ALL LAYERS
    SAVE DRAWDOWN FOR ALL LAYERS
1
              HEAD IN LAYER   1 AT END OF TIME STEP   1 IN STRESS PERIOD    1
  ---------------------------------------------------------------------------

           1       2       3       4       5       6       7       8       9      10
 ...................................................................................
   1    22.66   22.31   21.66   21.25   21.05   21.05   21.25   21.66   22.31   22.66
   2    21.62   21.13   20.71   20.42   20.27   20.27   20.42   20.71   21.13   21.62
   3    20.11   19.63   19.27   19.03   18.91   18.91   19.03   19.27   19.63   20.11
   4    18.05   17.62   17.33   17.14   17.05   17.05   17.14   17.33   17.62   18.05
   5    15.12   15.03   14.93   14.85   14.81   14.81   14.85   14.93   15.03   15.12
   6    12.47   12.44   12.40   12.37   12.35   12.35   12.37   12.40   12.44   12.47
   7     9.87    9.84    9.81    9.77    9.74    9.74    9.77    9.81    9.84    9.87
   8     7.30    7.24    7.13    7.03    6.97    6.97    7.03    7.13    7.24    7.30
   9     4.89    4.71    4.38    4.02    3.86    3.86    4.02    4.38    4.71    4.89
  10     3.13    2.68    1.70    0.00    0.00    0.00    0.00    1.70    2.68    3.13
1
              HEAD IN LAYER   2 AT END OF TIME STEP   1 IN STRESS PERIOD    1
  ---------------------------------------------------------------------------

           1       2       3       4       5       6       7       8       9      10
 ...................................................................................
   1    14.85   14.91   14.96   14.99   15.00   15.00   14.99   14.96   14.91   14.85
   2    14.53   16.75   16.88   16.77   16.70   16.70   16.77   16.88   16.75   14.53
   3    14.14   16.10   16.22   16.12   16.06   16.06   16.12   16.22   16.10   14.14
   4    13.67   15.13   15.21   15.14   15.09   15.09   15.14   15.21   15.13   13.67
   5    13.15   13.91   13.97   13.94   13.92   13.92   13.94   13.97   13.91   13.15
   6    12.61   12.67   12.66   12.64   12.63   12.63   12.64   12.66   12.67   12.61
   7    12.06   11.42   11.31   11.28   11.27   11.27   11.28   11.31   11.42   12.06
   8    11.54   10.18    9.93    9.87    9.84    9.84    9.87    9.93   10.18   11.54
   9    11.05    9.06    8.63    8.44    8.37    8.37    8.44    8.63    9.06   11.05
  10    10.63   10.55   10.48   10.42   10.40   10.40   10.42   10.48   10.55   10.63
1
              HEAD IN LAYER   3 AT END OF TIME STEP   1 IN STRESS PERIOD    1
  ---------------------------------------------------------------------------

           1       2       3       4       5       6       7       8       9      10
 ...................................................................................
   1    13.29   13.30   13.30   13.30   13.30   13.30   13.30   13.30   13.30   13.29
   2    13.27   13.27   13.28   13.28   13.28   13.28   13.28   13.28   13.27   13.27
   3    13.21   13.22   13.22   13.22   13.22   13.22   13.22   13.22   13.22   13.21
   4    13.13   13.13   13.13   13.14   13.14   13.14   13.14   13.13   13.13   13.13
   5    13.02   13.03   13.03   13.03   13.03   13.03   13.03   13.03   13.03   13.02
   6    12.91   12.91   12.91   12.91   12.91   12.91   12.91   12.91   12.91   12.91
   7    12.80   12.80   12.80   12.80   12.80   12.80   12.80   12.80   12.80   12.80
   8    12.71   12.70   12.70   12.70   12.70   12.70   12.70   12.70   12.70   12.71
   9    12.64   12.64   12.63   12.63   12.63   12.63   12.63   12.63   12.64   12.64
  10    12.61   12.61   12.61   12.61   12.61   12.61   12.61   12.61   12.61   12.61

 HEAD WILL BE SAVED ON UNIT   21 AT END OF TIME STEP     1 IN STRESS PERIOD      1

 DRAWDOWN WILL BE SAVED ON UNIT   22 AT END OF TIME STEP     1 IN STRESS PERIOD      1



  -------------------------------------------------------------------------------------
  VOLUMETRIC BUDGET FOR ENTIRE MODEL AT END OF TIME STEP    1 IN STRESS PERIOD      1
  -------------------------------------------------------------------------------------

     CUMULATIVE VOLUMES      L**3       RATES FOR THIS TIME STEP      L**3/T
     ------------------                 ------------------------

           IN:                                      IN:
           ---                                      ---
             STORAGE =           0.0000               STORAGE =           0.0000
       CONSTANT HEAD =           0.0000         CONSTANT HEAD =           0.0000
               WELLS =       30000.0000                 WELLS =       30000.0000
    INST. IB STORAGE =           0.0000      INST. IB STORAGE =           0.0000
    DELAY IB STORAGE =           0.0000      DELAY IB STORAGE =           0.0000

            TOTAL IN =       30000.0000              TOTAL IN =       30000.0000

          OUT:                                     OUT:
          ----                                     ----
             STORAGE =           0.0000               STORAGE =           0.0000
       CONSTANT HEAD =       30000.0327         CONSTANT HEAD =       30000.0327
               WELLS =           0.0000                 WELLS =           0.0000
    INST. IB STORAGE =           0.0000      INST. IB STORAGE =           0.0000
    DELAY IB STORAGE =           0.0000      DELAY IB STORAGE =           0.0000

           TOTAL OUT =       30000.0327             TOTAL OUT =       30000.0327

            IN - OUT =      -3.2693E-02              IN - OUT =      -3.2693E-02

 PERCENT DISCREPANCY =          -0.00     PERCENT DISCREPANCY =          -0.00


          TIME SUMMARY AT END OF TIME STEP     1 IN STRESS PERIOD      1
                    SECONDS     MINUTES      HOURS       DAYS        YEARS
                    -----------------------------------------------------------
   TIME STEP LENGTH  86400.      1440.0      24.000      1.0000     2.73785E-03
 STRESS PERIOD TIME  86400.      1440.0      24.000      1.0000     2.73785E-03
         TOTAL TIME  86400.      1440.0      24.000      1.0000     2.73785E-03
 
1
                            STRESS PERIOD NO.      2, LENGTH =   365.3000    
                            -----------------------------------------------

                              NUMBER OF TIME STEPS =     6

                               MULTIPLIER FOR DELT =     1.300

                            INITIAL TIME STEP SIZE =   28.63744    

 WEL PACKAGE STRESS PERIOD INFORMATION [BEFORE APPLICATION OF TABFILES]

 WELL NO.  LAYER   ROW   COL   STRESS RATE         
 --------------------------------------------------
      1      1      1      1   3000.0000    
      2      1      1      2   3000.0000    
      3      1      1      9   3000.0000    
      4      1      1     10   3000.0000    
      5      1      2      1   3000.0000    
      6      1      2     10   3000.0000    
      7      1      3      1   3000.0000    
      8      1      3     10   3000.0000    
      9      1      4      1   3000.0000    
     10      1      4     10   3000.0000    
     11      3      3      6  -14000.000    
     12      3      3      7  -8000.0000    
     13      3      4      6  -5000.0000    
     14      3      4      7  -3000.0000    

14 WELLS
 
 SOLVING FOR HEAD 

    36 ITERATIONS FOR TIME STEP   1 IN STRESS PERIOD    2

 MAXIMUM HEAD CHANGE FOR EACH ITERATION:

    HEAD CHANGE   HEAD CHANGE   HEAD CHANGE   HEAD CHANGE   HEAD CHANGE
  LAYER,ROW,COL LAYER,ROW,COL LAYER,ROW,COL LAYER,ROW,COL LAYER,ROW,COL
 ----------------------------------------------------------------------
     -6.802        -3.312        -3.377        -1.292        0.5812    
  (  3,  3,  6) (  3,  2,  8) (  3,  2,  7) (  3,  3,  1) (  3,  1,  1)
    -0.1455        0.1651        0.4065        0.3511        0.1262    
  (  2,  7,  1) (  3,  2,  9) (  3,  1, 10) (  3,  2,  1) (  3,  1, 10)
     0.2769E-01    0.3005E-01    0.5811E-01    0.5326E-01    0.1428E-01
  (  2,  8,  1) (  3,  1, 10) (  3,  2,  6) (  3,  1, 10) (  3,  3,  7)
     0.2964E-02    0.4981E-02    0.1055E-01    0.7563E-02    0.3029E-02
  (  2,  8,  1) (  3,  3,  7) (  3,  1, 10) (  3,  2,  6) (  3,  3,  7)
     0.8698E-03    0.9240E-03    0.1539E-02    0.1290E-02    0.4385E-03
  (  2,  8,  1) (  3,  3,  7) (  3,  3,  7) (  3,  3,  7) (  3,  3,  7)
     0.1087E-03    0.2150E-03    0.4049E-03    0.2744E-03    0.1339E-03
  (  3,  3,  7) (  3,  3,  7) (  3,  3,  7) (  3,  3,  7) (  3,  3,  7)
     0.3266E-04    0.4459E-04    0.8808E-04    0.6844E-04   -0.4170E-04
  (  2,  8,  1) (  3,  3,  7) (  3,  3,  7) (  3,  3,  7) (  3, 10,  3)
    -0.7615E-05
  (  3,  1,  1)


 OUTPUT CONTROL FOR STRESS PERIOD      2   TIME STEP     1
    PRINT HEAD FOR ALL LAYERS
    PRINT BUDGET
    SAVE HEAD FOR ALL LAYERS
1
              HEAD IN LAYER   1 AT END OF TIME STEP   1 IN STRESS PERIOD    2
  ---------------------------------------------------------------------------

           1       2       3       4       5       6       7       8       9      10
 ...................................................................................
   1    22.66   22.31   21.66   21.24   21.04   21.04   21.24   21.66   22.31   22.66
   2    21.62   21.13   20.71   20.42   20.27   20.27   20.42   20.71   21.13   21.62
   3    20.11   19.63   19.27   19.02   18.90   18.90   19.02   19.27   19.63   20.11
   4    18.05   17.62   17.33   17.14   17.05   17.05   17.14   17.33   17.62   18.05
   5    15.11   15.03   14.93   14.85   14.81   14.81   14.85   14.93   15.03   15.11
   6    12.47   12.44   12.40   12.37   12.35   12.35   12.37   12.40   12.44   12.47
   7     9.87    9.84    9.80    9.77    9.74    9.74    9.77    9.80    9.84    9.87
   8     7.30    7.23    7.13    7.03    6.97    6.97    7.03    7.13    7.23    7.30
   9     4.89    4.71    4.38    4.02    3.86    3.86    4.02    4.38    4.71    4.89
  10     3.13    2.68    1.70    0.00    0.00    0.00    0.00    1.70    2.68    3.13
1
              HEAD IN LAYER   2 AT END OF TIME STEP   1 IN STRESS PERIOD    2
  ---------------------------------------------------------------------------

           1       2       3       4       5       6       7       8       9      10
 ...................................................................................
   1    13.88   13.93   13.96   13.97   13.98   13.97   13.95   13.92   13.87   13.81
   2    13.62   15.71   15.74   15.50   15.27   15.13   15.20   15.41   15.39   13.51
   3    13.28   15.02   14.97   14.60   14.09   13.39   13.63   14.29   14.52   13.15
   4    12.88   14.16   14.11   13.84   13.52   13.16   13.27   13.63   13.76   12.75
   5    12.44   13.14   13.14   13.02   12.91   12.83   12.84   12.92   12.91   12.32
   6    11.97   12.09   12.06   12.01   11.96   11.94   11.94   11.96   11.97   11.87
   7    11.50   10.99   10.88   10.84   10.81   10.80   10.81   10.83   10.93   11.42
   8    11.04    9.85    9.62    9.54    9.51    9.50    9.53    9.59    9.82   10.98
   9    10.61    8.79    8.38    8.19    8.11    8.11    8.18    8.37    8.78   10.57
  10    10.23   10.15   10.08   10.03   10.01   10.01   10.03   10.07   10.13   10.21
1
              HEAD IN LAYER   3 AT END OF TIME STEP   1 IN STRESS PERIOD    2
  ---------------------------------------------------------------------------

           1       2       3       4       5       6       7       8       9      10
 ...................................................................................
   1     8.96    8.84    8.61    8.31    7.99    7.74    7.65    7.70    7.79    7.86
   2     8.75    8.55    8.15    7.56    6.84    6.19    6.19    6.61    7.01    7.24
   3     8.60    8.28    7.59    6.38    4.36    0.93    1.84    4.51    5.92    6.54
   4     8.96    8.71    8.18    7.32    6.06    4.33    4.66    5.99    6.84    7.25
   5     9.67    9.54    9.28    8.91    8.48    8.11    8.08    8.28    8.50    8.63
   6    10.38   10.32   10.21   10.07    9.91    9.79    9.75    9.76    9.80    9.83
   7    10.94   10.91   10.86   10.80   10.74   10.69   10.66   10.65   10.65   10.66
   8    11.31   11.30   11.28   11.25   11.22   11.20   11.18   11.17   11.17   11.17
   9    11.54   11.53   11.52   11.50   11.49   11.48   11.47   11.46   11.46   11.46
  10    11.65   11.64   11.64   11.63   11.62   11.61   11.61   11.60   11.60   11.60

 HEAD WILL BE SAVED ON UNIT   21 AT END OF TIME STEP     1 IN STRESS PERIOD      2



  -------------------------------------------------------------------------------------
  VOLUMETRIC BUDGET FOR ENTIRE MODEL AT END OF TIME STEP    1 IN STRESS PERIOD      2
  -------------------------------------------------------------------------------------

     CUMULATIVE VOLUMES      L**3       RATES FOR THIS TIME STEP      L**3/T
     ------------------                 ------------------------

           IN:                                      IN:
           ---                                      ---
             STORAGE =      224240.0611               STORAGE =        7830.3119
       CONSTANT HEAD =           0.0000         CONSTANT HEAD =           0.0000
               WELLS =      889123.0971                 WELLS =       30000.0000
    INST. IB STORAGE =      344507.7077      INST. IB STORAGE =       12029.9772
    DELAY IB STORAGE =      290022.6817      DELAY IB STORAGE =       10127.3967

            TOTAL IN =     1747893.5476              TOTAL IN =       59987.6858

          OUT:                                     OUT:
          ----                                     ----
             STORAGE =           0.0000               STORAGE =           0.0000
       CONSTANT HEAD =      888771.9615         CONSTANT HEAD =       29987.7374
               WELLS =      859123.0971                 WELLS =       30000.0000
    INST. IB STORAGE =           0.0000      INST. IB STORAGE =           0.0000
    DELAY IB STORAGE =           0.0000      DELAY IB STORAGE =           0.0000

           TOTAL OUT =     1747895.0586             TOTAL OUT =       59987.7374

            IN - OUT =          -1.5110              IN - OUT =      -5.1621E-02

 PERCENT DISCREPANCY =          -0.00     PERCENT DISCREPANCY =          -0.00


          TIME SUMMARY AT END OF TIME STEP     1 IN STRESS PERIOD      2
                    SECONDS     MINUTES      HOURS       DAYS        YEARS
                    -----------------------------------------------------------
   TIME STEP LENGTH 2.47427E+06  41238.      687.30      28.637     7.84050E-02
 STRESS PERIOD TIME 2.47427E+06  41238.      687.30      28.637     7.84050E-02
         TOTAL TIME 2.56067E+06  42678.      711.30      29.637     8.11429E-02
 
 
 SOLVING FOR HEAD 
    36 ITERATIONS FOR TIME STEP   2 IN STRESS PERIOD    2

 MAXIMUM HEAD CHANGE FOR EACH ITERATION:

    HEAD CHANGE   HEAD CHANGE   HEAD CHANGE   HEAD CHANGE   HEAD CHANGE
  LAYER,ROW,COL LAYER,ROW,COL LAYER,ROW,COL LAYER,ROW,COL LAYER,ROW,COL
 ----------------------------------------------------------------------
     -1.952        -2.327        -3.284        -1.812        0.6614    
  (  2,  3,  6) (  3,  1, 10) (  3,  1,  1) (  3,  4,  1) (  3,  1,  1)
    -0.2336        0.1657        0.4562        0.4924        0.1728    
  (  2,  6,  1) (  3,  1,  1) (  3,  1, 10) (  3,  2,  1) (  3,  1, 10)
     0.3521E-01    0.2605E-01    0.5743E-01    0.6173E-01    0.1612E-01
  (  2,  8,  1) (  3,  1, 10) (  3,  1,  1) (  3,  1, 10) (  3,  2,  9)
     0.2922E-02    0.3667E-02    0.9051E-02    0.7310E-02    0.2698E-02
  (  2,  8,  1) (  3,  1,  1) (  3,  1, 10) (  3,  1,  1) (  3,  1, 10)
     0.9501E-03    0.6468E-03    0.1146E-02    0.1059E-02    0.3141E-03
  (  2,  9,  1) (  3,  1, 10) (  3,  2,  7) (  3,  1, 10) (  3,  2, 10)
    -0.1221E-03    0.1227E-03    0.2798E-03    0.1888E-03    0.8036E-04
  (  2,  2,  1) (  3,  3,  7) (  3,  1, 10) (  3,  2,  6) (  3,  2,  9)
     0.3741E-04    0.1269E-04    0.2531E-04   -0.3412E-04   -0.3532E-04
  (  2,  9,  1) (  3,  3,  7) (  3,  2,  9) (  3, 10,  1) (  3, 10,  1)
    -0.5721E-05
  (  2,  2,  1)


 OUTPUT CONTROL FOR STRESS PERIOD      2   TIME STEP     2
    PRINT HEAD FOR ALL LAYERS
    PRINT BUDGET
    SAVE HEAD FOR ALL LAYERS
1
              HEAD IN LAYER   1 AT END OF TIME STEP   2 IN STRESS PERIOD    2
  ---------------------------------------------------------------------------

           1       2       3       4       5       6       7       8       9      10
 ...................................................................................
   1    22.65   22.31   21.65   21.24   21.04   21.04   21.24   21.65   22.31   22.65
   2    21.62   21.12   20.71   20.41   20.26   20.26   20.41   20.71   21.12   21.62
   3    20.11   19.62   19.26   19.02   18.90   18.90   19.02   19.26   19.62   20.11
   4    18.04   17.62   17.32   17.14   17.05   17.04   17.14   17.32   17.61   18.04
   5    15.11   15.03   14.93   14.85   14.80   14.80   14.85   14.93   15.03   15.11
   6    12.47   12.44   12.40   12.36   12.34   12.34   12.36   12.40   12.44   12.47
   7     9.87    9.84    9.80    9.76    9.74    9.74    9.76    9.80    9.84    9.87
   8     7.30    7.23    7.13    7.03    6.97    6.97    7.03    7.13    7.23    7.29
   9     4.89    4.71    4.38    4.02    3.86    3.86    4.02    4.38    4.71    4.89
  10     3.13    2.68    1.70    0.00    0.00    0.00    0.00    1.70    2.68    3.13
1
              HEAD IN LAYER   2 AT END OF TIME STEP   2 IN STRESS PERIOD    2
  ---------------------------------------------------------------------------

           1       2       3       4       5       6       7       8       9      10
 ...................................................................................
   1    12.04   12.07   12.09   12.10   12.09   12.08   12.06   12.03   11.99   11.94
   2    11.84   13.68   13.61   13.26   12.90   12.65   12.70   12.97   13.06   11.68
   3    11.58   13.00   12.80   12.22   11.38   10.22   10.55   11.56   12.07   11.38
   4    11.26   12.31   12.14   11.71   11.18   10.57   10.70   11.24   11.56   11.06
   5    10.91   11.54   11.48   11.30   11.10   10.95   10.95   11.05   11.10   10.73
   6    10.54   10.75   10.71   10.63   10.55   10.50   10.48   10.50   10.52   10.38
   7    10.16    9.88    9.78    9.73    9.69    9.66    9.66    9.68    9.75   10.03
   8     9.78    8.91    8.70    8.63    8.58    8.57    8.59    8.65    8.84    9.69
   9     9.42    7.96    7.58    7.39    7.30    7.30    7.37    7.55    7.92    9.36
  10     9.10    9.03    8.97    8.93    8.91    8.90    8.92    8.95    9.00    9.07
1
              HEAD IN LAYER   3 AT END OF TIME STEP   2 IN STRESS PERIOD    2
  ---------------------------------------------------------------------------

           1       2       3       4       5       6       7       8       9      10
 ...................................................................................
   1     3.51    3.35    3.05    2.67    2.26    1.93    1.79    1.81    1.90    1.96
   2     3.34    3.10    2.61    1.91    1.07    0.33    0.27    0.68    1.10    1.33
   3     3.36    2.99    2.19    0.83   -1.37   -4.95   -4.07   -1.36    0.11    0.76
   4     4.11    3.81    3.18    2.20    0.80   -1.04   -0.76    0.59    1.47    1.90
   5     5.36    5.19    4.87    4.42    3.91    3.48    3.41    3.60    3.82    3.96
   6     6.65    6.57    6.43    6.24    6.04    5.88    5.80    5.80    5.84    5.86
   7     7.74    7.70    7.64    7.55    7.47    7.39    7.35    7.32    7.31    7.31
   8     8.54    8.52    8.49    8.45    8.41    8.37    8.35    8.33    8.32    8.31
   9     9.06    9.05    9.03    9.01    8.99    8.97    8.95    8.94    8.93    8.93
  10     9.32    9.31    9.30    9.29    9.27    9.26    9.25    9.24    9.23    9.23

 HEAD WILL BE SAVED ON UNIT   21 AT END OF TIME STEP     2 IN STRESS PERIOD      2



  -------------------------------------------------------------------------------------
  VOLUMETRIC BUDGET FOR ENTIRE MODEL AT END OF TIME STEP    2 IN STRESS PERIOD      2
  -------------------------------------------------------------------------------------

     CUMULATIVE VOLUMES      L**3       RATES FOR THIS TIME STEP      L**3/T
     ------------------                 ------------------------

           IN:                                      IN:
           ---                                      ---
             STORAGE =      515906.4779               STORAGE =        7834.4576
       CONSTANT HEAD =           0.0000         CONSTANT HEAD =           0.0000
               WELLS =     2005983.1233                 WELLS =       30000.0000
    INST. IB STORAGE =      742644.7691      INST. IB STORAGE =       10694.3677
    DELAY IB STORAGE =      715139.0148      DELAY IB STORAGE =       11419.0585

            TOTAL IN =     3979673.3851              TOTAL IN =       59947.8838

          OUT:                                     OUT:
          ----                                     ----
             STORAGE =           0.0000               STORAGE =           0.0000
       CONSTANT HEAD =     2003692.2964         CONSTANT HEAD =       29947.8979
               WELLS =     1975983.1233                 WELLS =       30000.0000
    INST. IB STORAGE =           0.0000      INST. IB STORAGE =           0.0000
    DELAY IB STORAGE =           0.0000      DELAY IB STORAGE =           0.0000

           TOTAL OUT =     3979675.4196             TOTAL OUT =       59947.8979

            IN - OUT =          -2.0345              IN - OUT =      -1.4064E-02

 PERCENT DISCREPANCY =          -0.00     PERCENT DISCREPANCY =          -0.00


          TIME SUMMARY AT END OF TIME STEP     2 IN STRESS PERIOD      2
                    SECONDS     MINUTES      HOURS       DAYS        YEARS
                    -----------------------------------------------------------
   TIME STEP LENGTH 3.21656E+06  53609.      893.49      37.229     0.10193    
 STRESS PERIOD TIME 5.69083E+06  94847.      1580.8      65.866     0.18033    
         TOTAL TIME 5.77723E+06  96287.      1604.8      66.866     0.18307    
 
 
 SOLVING FOR HEAD 
    36 ITERATIONS FOR TIME STEP   3 IN STRESS PERIOD    2

 MAXIMUM HEAD CHANGE FOR EACH ITERATION:

    HEAD CHANGE   HEAD CHANGE   HEAD CHANGE   HEAD CHANGE   HEAD CHANGE
  LAYER,ROW,COL LAYER,ROW,COL LAYER,ROW,COL LAYER,ROW,COL LAYER,ROW,COL
 ----------------------------------------------------------------------
     -1.931        -1.987        -2.935        -1.853        0.5227    
  (  2,  3,  6) (  3,  1, 10) (  3,  1,  1) (  3,  8,  1) (  3,  1,  1)
    -0.3121        0.1531        0.4030        0.4939        0.1624    
  (  2,  5,  1) (  3, 10, 10) (  3, 10,  1) (  3, 10, 10) (  3,  1,  1)
     0.3400E-01    0.4292E-01    0.6964E-01    0.6490E-01    0.2541E-01
  (  2,  4,  1) (  3,  1, 10) (  3,  1,  1) (  3,  8,  1) (  3,  5,  1)
     0.4264E-02    0.6232E-02    0.1070E-01    0.8515E-02    0.3215E-02
  (  3,  2,  6) (  3,  1,  1) (  3,  1,  4) (  3,  4,  1) (  3,  1,  4)
     0.1015E-02    0.1017E-02    0.1372E-02    0.1113E-02    0.4475E-03
  (  2,  8,  1) (  3,  1, 10) (  3,  1,  1) (  3,  1,  2) (  3,  4,  1)
    -0.1223E-03    0.1658E-03    0.2831E-03    0.1776E-03    0.9806E-04
  (  2,  2,  1) (  3,  1,  1) (  3,  1,  4) (  3,  4,  1) (  3,  1,  4)
     0.3931E-04    0.4008E-04    0.4631E-04    0.4377E-04   -0.2695E-04
  (  2,  8,  1) (  3,  1, 10) (  3,  1,  9) (  3,  1,  2) (  3, 10,  2)
    -0.6496E-05
  (  3, 10,  1)


 OUTPUT CONTROL FOR STRESS PERIOD      2   TIME STEP     3
    PRINT HEAD FOR ALL LAYERS
    PRINT BUDGET
    SAVE HEAD FOR ALL LAYERS
1
              HEAD IN LAYER   1 AT END OF TIME STEP   3 IN STRESS PERIOD    2
  ---------------------------------------------------------------------------

           1       2       3       4       5       6       7       8       9      10
 ...................................................................................
   1    22.65   22.30   21.65   21.23   21.03   21.03   21.23   21.65   22.30   22.65
   2    21.61   21.11   20.70   20.41   20.26   20.25   20.40   20.70   21.11   21.61
   3    20.10   19.62   19.25   19.01   18.89   18.89   19.01   19.25   19.61   20.10
   4    18.04   17.61   17.31   17.13   17.04   17.04   17.13   17.31   17.61   18.03
   5    15.11   15.02   14.92   14.84   14.80   14.80   14.84   14.92   15.02   15.10
   6    12.46   12.43   12.39   12.36   12.34   12.34   12.36   12.39   12.43   12.46
   7     9.86    9.84    9.80    9.76    9.74    9.73    9.76    9.80    9.84    9.86
   8     7.29    7.23    7.13    7.02    6.96    6.96    7.02    7.13    7.23    7.29
   9     4.88    4.70    4.38    4.01    3.86    3.86    4.01    4.38    4.70    4.88
  10     3.13    2.67    1.69    0.00    0.00    0.00    0.00    1.69    2.67    3.13
1
              HEAD IN LAYER   2 AT END OF TIME STEP   3 IN STRESS PERIOD    2
  ---------------------------------------------------------------------------

           1       2       3       4       5       6       7       8       9      10
 ...................................................................................
   1     9.71    9.74    9.75    9.75    9.74    9.73    9.71    9.68    9.65    9.60
   2     9.56   11.12   10.98   10.58   10.18    9.88    9.92   10.20   10.37    9.39
   3     9.34   10.49   10.20    9.53    8.58    7.29    7.64    8.74    9.39    9.13
   4     9.08    9.93    9.68    9.19    8.55    7.83    7.97    8.59    9.02    8.87
   5     8.80    9.35    9.26    9.03    8.80    8.61    8.60    8.72    8.80    8.59
   6     8.49    8.77    8.72    8.63    8.53    8.46    8.44    8.45    8.46    8.31
   7     8.16    8.08    8.01    7.95    7.90    7.86    7.85    7.87    7.91    8.02
   8     7.84    7.27    7.09    7.02    6.97    6.95    6.97    7.02    7.17    7.73
   9     7.53    6.41    6.07    5.88    5.79    5.78    5.85    6.03    6.35    7.46
  10     7.25    7.19    7.13    7.09    7.07    7.07    7.08    7.11    7.16    7.21
1
              HEAD IN LAYER   3 AT END OF TIME STEP   3 IN STRESS PERIOD    2
  ---------------------------------------------------------------------------

           1       2       3       4       5       6       7       8       9      10
 ...................................................................................
   1    -1.69   -1.84   -2.12   -2.49   -2.88   -3.19   -3.34   -3.34   -3.28   -3.22
   2    -1.77   -1.99   -2.45   -3.10   -3.87   -4.55   -4.63   -4.28   -3.92   -3.72
   3    -1.59   -1.93   -2.67   -3.92   -5.89   -9.04   -8.29   -5.95   -4.66   -4.08
   4    -0.67   -0.95   -1.55   -2.49   -3.83   -5.61   -5.34   -4.05   -3.22   -2.82
   5     0.80    0.64    0.32   -0.11   -0.61   -1.04   -1.11   -0.94   -0.73   -0.60
   6     2.34    2.26    2.12    1.93    1.73    1.57    1.49    1.48    1.51    1.53
   7     3.68    3.65    3.58    3.50    3.41    3.33    3.28    3.25    3.24    3.24
   8     4.71    4.69    4.66    4.62    4.57    4.53    4.50    4.48    4.47    4.46
   9     5.40    5.38    5.37    5.34    5.32    5.29    5.28    5.26    5.25    5.25
  10     5.74    5.73    5.72    5.71    5.69    5.67    5.66    5.65    5.64    5.64

 HEAD WILL BE SAVED ON UNIT   21 AT END OF TIME STEP     3 IN STRESS PERIOD      2



  -------------------------------------------------------------------------------------
  VOLUMETRIC BUDGET FOR ENTIRE MODEL AT END OF TIME STEP    3 IN STRESS PERIOD      2
  -------------------------------------------------------------------------------------

     CUMULATIVE VOLUMES      L**3       RATES FOR THIS TIME STEP      L**3/T
     ------------------                 ------------------------

           IN:                                      IN:
           ---                                      ---
             STORAGE =      897668.1231               STORAGE =        7888.0826
       CONSTANT HEAD =           0.0000         CONSTANT HEAD =           0.0000
               WELLS =     3457901.1573                 WELLS =       30000.0000
    INST. IB STORAGE =     1291319.9539      INST. IB STORAGE =       11336.9041
    DELAY IB STORAGE =     1230219.4468      DELAY IB STORAGE =       10642.7585

            TOTAL IN =     6877108.6812              TOTAL IN =       59867.7452

          OUT:                                     OUT:
          ----                                     ----
             STORAGE =           0.0000               STORAGE =           0.0000
       CONSTANT HEAD =     3449210.9995         CONSTANT HEAD =       29867.7750
               WELLS =     3427901.1573                 WELLS =       30000.0000
    INST. IB STORAGE =           0.0000      INST. IB STORAGE =           0.0000
    DELAY IB STORAGE =           0.0000      DELAY IB STORAGE =           0.0000

           TOTAL OUT =     6877112.1569             TOTAL OUT =       59867.7750

            IN - OUT =          -3.4757              IN - OUT =      -2.9778E-02

 PERCENT DISCREPANCY =          -0.00     PERCENT DISCREPANCY =          -0.00


          TIME SUMMARY AT END OF TIME STEP     3 IN STRESS PERIOD      2
                    SECONDS     MINUTES      HOURS       DAYS        YEARS
                    -----------------------------------------------------------
   TIME STEP LENGTH 4.18152E+06  69692.      1161.5      48.397     0.13250    
 STRESS PERIOD TIME 9.87236E+06 1.64539E+05  2742.3      114.26     0.31284    
         TOTAL TIME 9.95876E+06 1.65979E+05  2766.3      115.26     0.31557    
 
 
 SOLVING FOR HEAD 
    39 ITERATIONS FOR TIME STEP   4 IN STRESS PERIOD    2

 MAXIMUM HEAD CHANGE FOR EACH ITERATION:

    HEAD CHANGE   HEAD CHANGE   HEAD CHANGE   HEAD CHANGE   HEAD CHANGE
  LAYER,ROW,COL LAYER,ROW,COL LAYER,ROW,COL LAYER,ROW,COL LAYER,ROW,COL
 ----------------------------------------------------------------------
     -1.761        -1.625        -2.510        -1.610        0.4181    
  (  2,  3,  6) (  3,  1, 10) (  3, 10, 10) (  3, 10,  1) (  2,  1,  1)
    -0.3487        0.1052        0.2694        0.3489        0.6868E-01
  (  2,  5,  1) (  3, 10,  3) (  3, 10,  1) (  3, 10, 10) (  3,  1,  1)
     0.3121E-01    0.2317E-01    0.5804E-01    0.6195E-01    0.2829E-01
  (  2,  4,  1) (  3,  1,  4) (  3, 10, 10) (  3, 10,  1) (  3,  8,  1)
     0.4399E-02    0.6769E-02    0.8308E-02    0.1107E-01    0.3439E-02
  (  3,  1,  5) (  3,  1,  1) (  3,  1,  2) (  3,  6,  1) (  3,  1,  1)
     0.8154E-03    0.1352E-02    0.2013E-02    0.1870E-02    0.9426E-03
  (  2,  5,  1) (  3,  1,  8) (  3,  5,  2) (  3, 10,  1) (  3,  6,  1)
     0.2081E-03    0.3413E-03    0.4387E-03    0.4045E-03    0.1813E-03
  (  3,  1,  5) (  3,  1,  1) (  3,  1,  2) (  3,  5,  1) (  3,  1,  1)
     0.4876E-04    0.8180E-04    0.8610E-04    0.7243E-04    0.5287E-04
  (  2,  7,  1) (  3,  1, 10) (  3,  1,  1) (  3,  1,  1) (  3,  6,  1)
     0.1233E-04    0.1315E-04    0.1597E-04    0.8632E-05
  (  3,  1,  5) (  3,  1,  1) (  3,  1,  1) (  3,  4,  1)


 OUTPUT CONTROL FOR STRESS PERIOD      2   TIME STEP     4
    PRINT HEAD FOR ALL LAYERS
    PRINT BUDGET
    SAVE HEAD FOR ALL LAYERS
1
              HEAD IN LAYER   1 AT END OF TIME STEP   4 IN STRESS PERIOD    2
  ---------------------------------------------------------------------------

           1       2       3       4       5       6       7       8       9      10
 ...................................................................................
   1    22.63   22.29   21.63   21.22   21.02   21.02   21.22   21.63   22.29   22.63
   2    21.60   21.10   20.68   20.39   20.24   20.24   20.39   20.68   21.10   21.59
   3    20.09   19.60   19.24   19.00   18.87   18.87   18.99   19.23   19.60   20.09
   4    18.02   17.59   17.30   17.11   17.02   17.02   17.11   17.30   17.59   18.02
   5    15.09   15.01   14.91   14.83   14.78   14.78   14.82   14.90   15.00   15.09
   6    12.45   12.42   12.38   12.35   12.33   12.32   12.35   12.38   12.42   12.45
   7     9.85    9.83    9.79    9.75    9.72    9.72    9.75    9.79    9.83    9.85
   8     7.28    7.22    7.12    7.01    6.95    6.95    7.01    7.12    7.22    7.28
   9     4.88    4.69    4.37    4.00    3.85    3.85    4.00    4.37    4.69    4.88
  10     3.12    2.67    1.69    0.00    0.00    0.00    0.00    1.69    2.67    3.12
1
              HEAD IN LAYER   2 AT END OF TIME STEP   4 IN STRESS PERIOD    2
  ---------------------------------------------------------------------------

           1       2       3       4       5       6       7       8       9      10
 ...................................................................................
   1     7.50    7.53    7.54    7.55    7.54    7.53    7.51    7.49    7.46    7.42
   2     7.34    8.76    8.62    8.24    7.87    7.61    7.67    7.95    8.12    7.21
   3     7.13    8.17    7.88    7.26    6.39    5.08    5.47    6.60    7.23    6.97
   4     6.87    7.64    7.39    6.92    6.32    5.64    5.80    6.39    6.83    6.70
   5     6.59    7.10    7.01    6.79    6.57    6.39    6.38    6.50    6.60    6.42
   6     6.28    6.57    6.53    6.44    6.35    6.28    6.26    6.27    6.28    6.14
   7     5.96    5.94    5.88    5.83    5.78    5.74    5.73    5.75    5.78    5.85
   8     5.64    5.18    5.03    4.96    4.91    4.89    4.91    4.96    5.08    5.55
   9     5.34    4.35    4.05    3.86    3.77    3.76    3.83    4.00    4.29    5.28
  10     5.06    5.00    4.95    4.91    4.89    4.89    4.90    4.93    4.97    5.03
1
              HEAD IN LAYER   3 AT END OF TIME STEP   4 IN STRESS PERIOD    2
  ---------------------------------------------------------------------------

           1       2       3       4       5       6       7       8       9      10
 ...................................................................................
   1    -5.46   -5.57   -5.79   -6.06   -6.35   -6.57   -6.66   -6.65   -6.60   -6.56
   2    -5.47   -5.65   -5.99   -6.49   -7.05   -7.54   -7.54   -7.25   -7.00   -6.85
   3    -5.25   -5.52   -6.10   -7.06   -8.60  -11.64  -10.75   -8.44   -7.42   -7.01
   4    -4.39   -4.62   -5.10   -5.85   -6.93   -8.38   -8.09   -7.01   -6.33   -6.01
   5    -3.05   -3.18   -3.44   -3.79   -4.19   -4.53   -4.57   -4.42   -4.24   -4.14
   6    -1.62   -1.69   -1.80   -1.96   -2.12   -2.25   -2.31   -2.31   -2.28   -2.26
   7    -0.36   -0.39   -0.44   -0.51   -0.58   -0.65   -0.69   -0.71   -0.72   -0.72
   8     0.63    0.61    0.59    0.55    0.52    0.48    0.46    0.44    0.43    0.42
   9     1.30    1.29    1.27    1.25    1.23    1.21    1.20    1.18    1.18    1.17
  10     1.64    1.63    1.62    1.61    1.59    1.58    1.57    1.56    1.55    1.55

 HEAD WILL BE SAVED ON UNIT   21 AT END OF TIME STEP     4 IN STRESS PERIOD      2



  -------------------------------------------------------------------------------------
  VOLUMETRIC BUDGET FOR ENTIRE MODEL AT END OF TIME STEP    4 IN STRESS PERIOD      2
  -------------------------------------------------------------------------------------

     CUMULATIVE VOLUMES      L**3       RATES FOR THIS TIME STEP      L**3/T
     ------------------                 ------------------------

           IN:                                      IN:
           ---                                      ---
             STORAGE =     1355302.2704               STORAGE =        7273.6806
       CONSTANT HEAD =           0.0000         CONSTANT HEAD =           0.0000
               WELLS =     5345394.6016                 WELLS =       30000.0000
    INST. IB STORAGE =     2108039.1083      INST. IB STORAGE =       12981.0118
    DELAY IB STORAGE =     1827210.2717      DELAY IB STORAGE =        9488.6288

            TOTAL IN =    10635946.2520              TOTAL IN =       59743.3212

          OUT:                                     OUT:
          ----                                     ----
             STORAGE =           0.0000               STORAGE =           0.0000
       CONSTANT HEAD =     5320555.4153         CONSTANT HEAD =       29743.3258
               WELLS =     5315394.6016                 WELLS =       30000.0000
    INST. IB STORAGE =       2.9104E-11      INST. IB STORAGE =       4.6258E-13
    DELAY IB STORAGE =           0.0000      DELAY IB STORAGE =           0.0000

           TOTAL OUT =    10635950.0169             TOTAL OUT =       59743.3258

            IN - OUT =          -3.7650              IN - OUT =      -4.5973E-03

 PERCENT DISCREPANCY =          -0.00     PERCENT DISCREPANCY =          -0.00


          TIME SUMMARY AT END OF TIME STEP     4 IN STRESS PERIOD      2
                    SECONDS     MINUTES      HOURS       DAYS        YEARS
                    -----------------------------------------------------------
   TIME STEP LENGTH 5.43598E+06  90600.      1510.0      62.916     0.17226    
 STRESS PERIOD TIME 1.53083E+07 2.55139E+05  4252.3      177.18     0.48509    
         TOTAL TIME 1.53947E+07 2.56579E+05  4276.3      178.18     0.48783    
 
 
 SOLVING FOR HEAD 
    37 ITERATIONS FOR TIME STEP   5 IN STRESS PERIOD    2

 MAXIMUM HEAD CHANGE FOR EACH ITERATION:

    HEAD CHANGE   HEAD CHANGE   HEAD CHANGE   HEAD CHANGE   HEAD CHANGE
  LAYER,ROW,COL LAYER,ROW,COL LAYER,ROW,COL LAYER,ROW,COL LAYER,ROW,COL
 ----------------------------------------------------------------------
     -1.414       -0.9226        -2.123        -1.311        0.4562    
  (  3,  3,  7) (  3, 10,  1) (  3, 10, 10) (  3, 10,  1) (  2,  1, 10)
    -0.3842        0.7584E-01    0.2012        0.2434        0.4663E-01
  (  2,  1, 10) (  3, 10,  3) (  3, 10,  1) (  3, 10, 10) (  3, 10, 10)
     0.3528E-01    0.2466E-01    0.4541E-01    0.4673E-01    0.1970E-01
  (  2,  3,  1) (  2,  1,  2) (  3, 10, 10) (  3, 10,  1) (  3, 10,  1)
     0.8219E-02    0.2739E-02    0.4823E-02    0.7946E-02    0.1364E-02
  (  2,  2,  1) (  3,  1,  1) (  3, 10,  1) (  3, 10, 10) (  3, 10, 10)
    -0.4163E-03    0.4999E-03    0.1603E-02    0.1654E-02    0.7265E-03
  (  2,  9,  1) (  3, 10,  1) (  3, 10, 10) (  3, 10,  1) (  3,  9,  1)
     0.1810E-03    0.1142E-03    0.1030E-03    0.2580E-03    0.8312E-04
  (  2,  1,  9) (  3,  1,  1) (  3,  9,  9) (  3,  8,  1) (  3, 10,  1)
    -0.3472E-04   -0.3075E-04    0.4298E-04    0.6966E-04    0.5277E-04
  (  3,  3,  6) (  3,  3,  6) (  3,  8,  1) (  3, 10,  1) (  3,  9,  1)
    -0.1256E-04   -0.9099E-05
  (  3,  3,  6) (  3,  3,  6)


 OUTPUT CONTROL FOR STRESS PERIOD      2   TIME STEP     5
    PRINT HEAD FOR ALL LAYERS
    PRINT BUDGET
    SAVE HEAD FOR ALL LAYERS
1
              HEAD IN LAYER   1 AT END OF TIME STEP   5 IN STRESS PERIOD    2
  ---------------------------------------------------------------------------

           1       2       3       4       5       6       7       8       9      10
 ...................................................................................
   1    22.61   22.27   21.61   21.20   21.00   20.99   21.20   21.61   22.26   22.61
   2    21.57   21.08   20.66   20.37   20.22   20.22   20.36   20.66   21.08   21.57
   3    20.07   19.58   19.22   18.97   18.85   18.85   18.97   19.21   19.57   20.06
   4    18.00   17.57   17.28   17.09   17.00   17.00   17.09   17.27   17.57   18.00
   5    15.07   14.99   14.88   14.80   14.76   14.76   14.80   14.88   14.98   15.07
   6    12.43   12.40   12.36   12.33   12.31   12.30   12.33   12.36   12.40   12.43
   7     9.83    9.81    9.77    9.73    9.71    9.71    9.73    9.77    9.81    9.83
   8     7.26    7.20    7.10    7.00    6.94    6.94    7.00    7.10    7.20    7.26
   9     4.86    4.68    4.36    3.99    3.84    3.84    3.99    4.36    4.68    4.86
  10     3.11    2.65    1.68    0.00    0.00    0.00    0.00    1.68    2.65    3.11
1
              HEAD IN LAYER   2 AT END OF TIME STEP   5 IN STRESS PERIOD    2
  ---------------------------------------------------------------------------

           1       2       3       4       5       6       7       8       9      10
 ...................................................................................
   1     6.03    6.06    6.09    6.10    6.10    6.10    6.08    6.06    6.03    5.99
   2     5.82    7.32    7.23    6.92    6.61    6.37    6.45    6.77    6.95    5.75
   3     5.55    6.68    6.45    5.89    5.00    3.64    4.07    5.30    5.99    5.46
   4     5.24    6.04    5.84    5.44    4.90    4.22    4.40    5.05    5.47    5.14
   5     4.89    5.37    5.29    5.10    4.90    4.74    4.75    4.88    4.99    4.80
   6     4.53    4.72    4.69    4.60    4.52    4.47    4.46    4.48    4.50    4.44
   7     4.16    4.01    3.95    3.89    3.85    3.83    3.82    3.84    3.88    4.09
   8     3.80    3.18    3.04    2.97    2.92    2.91    2.93    2.98    3.11    3.74
   9     3.46    2.32    2.02    1.83    1.75    1.74    1.81    1.98    2.28    3.42
  10     3.15    3.08    3.03    2.99    2.96    2.96    2.98    3.01    3.06    3.13
1
              HEAD IN LAYER   3 AT END OF TIME STEP   5 IN STRESS PERIOD    2
  ---------------------------------------------------------------------------

           1       2       3       4       5       6       7       8       9      10
 ...................................................................................
   1    -6.92   -6.97   -7.06   -7.18   -7.31   -7.41   -7.42   -7.35   -7.27   -7.22
   2    -6.98   -7.07   -7.26   -7.57   -8.02   -8.50   -8.43   -8.02   -7.67   -7.49
   3    -6.92   -7.10   -7.51   -8.35  -10.05  -13.27  -12.30   -9.70   -8.40   -7.86
   4    -6.41   -6.58   -6.94   -7.51   -8.43   -9.96   -9.58   -8.32   -7.64   -7.33
   5    -5.50   -5.60   -5.80   -6.08   -6.42   -6.72   -6.73   -6.52   -6.32   -6.21
   6    -4.46   -4.51   -4.60   -4.73   -4.85   -4.95   -4.99   -4.97   -4.93   -4.90
   7    -3.51   -3.53   -3.57   -3.63   -3.69   -3.73   -3.76   -3.77   -3.77   -3.76
   8    -2.75   -2.76   -2.79   -2.81   -2.84   -2.86   -2.88   -2.89   -2.90   -2.90
   9    -2.23   -2.24   -2.25   -2.27   -2.29   -2.30   -2.31   -2.32   -2.32   -2.32
  10    -1.97   -1.97   -1.98   -1.99   -2.00   -2.01   -2.02   -2.03   -2.03   -2.03

 HEAD WILL BE SAVED ON UNIT   21 AT END OF TIME STEP     5 IN STRESS PERIOD      2



  -------------------------------------------------------------------------------------
  VOLUMETRIC BUDGET FOR ENTIRE MODEL AT END OF TIME STEP    5 IN STRESS PERIOD      2
  -------------------------------------------------------------------------------------

     CUMULATIVE VOLUMES      L**3       RATES FOR THIS TIME STEP      L**3/T
     ------------------                 ------------------------

           IN:                                      IN:
           ---                                      ---
             STORAGE =     1877094.1056               STORAGE =        6379.5454
       CONSTANT HEAD =           0.0000         CONSTANT HEAD =           0.0000
               WELLS =     7799136.0792                 WELLS =       30000.0000
    INST. IB STORAGE =     3241655.8245      INST. IB STORAGE =       13859.8552
    DELAY IB STORAGE =     2591354.9793      DELAY IB STORAGE =        9342.6066

            TOTAL IN =    15509240.9886              TOTAL IN =       59582.0071

          OUT:                                     OUT:
          ----                                     ----
             STORAGE =           0.0000               STORAGE =           0.0000
       CONSTANT HEAD =     7740108.3383         CONSTANT HEAD =       29582.0030
               WELLS =     7769136.0792                 WELLS =       30000.0000
    INST. IB STORAGE =       3.0923E-10      INST. IB STORAGE =       3.4249E-12
    DELAY IB STORAGE =           0.0000      DELAY IB STORAGE =           0.0000

           TOTAL OUT =    15509244.4175             TOTAL OUT =       59582.0030

            IN - OUT =          -3.4288              IN - OUT =       4.1096E-03

 PERCENT DISCREPANCY =          -0.00     PERCENT DISCREPANCY =           0.00


          TIME SUMMARY AT END OF TIME STEP     5 IN STRESS PERIOD      2
                    SECONDS     MINUTES      HOURS       DAYS        YEARS
                    -----------------------------------------------------------
   TIME STEP LENGTH 7.06678E+06 1.17780E+05  1963.0      81.791     0.22393    
 STRESS PERIOD TIME 2.23751E+07 3.72919E+05  6215.3      258.97     0.70902    
         TOTAL TIME 2.24615E+07 3.74359E+05  6239.3      259.97     0.71176    
 
 
 SOLVING FOR HEAD 
    37 ITERATIONS FOR TIME STEP   6 IN STRESS PERIOD    2

 MAXIMUM HEAD CHANGE FOR EACH ITERATION:

    HEAD CHANGE   HEAD CHANGE   HEAD CHANGE   HEAD CHANGE   HEAD CHANGE
  LAYER,ROW,COL LAYER,ROW,COL LAYER,ROW,COL LAYER,ROW,COL LAYER,ROW,COL
 ----------------------------------------------------------------------
    -0.9416       -0.6392        -1.440       -0.8130        0.3195    
  (  3,  3,  7) (  3, 10,  1) (  3, 10, 10) (  3, 10,  1) (  2,  1, 10)
    -0.2886        0.4127E-01    0.1167        0.1420        0.2477E-01
  (  2,  1, 10) (  3, 10, 10) (  3, 10,  1) (  3, 10, 10) (  3, 10, 10)
     0.2357E-01    0.1602E-01    0.2712E-01    0.2719E-01    0.9355E-02
  (  2,  3,  1) (  2,  1,  2) (  3, 10, 10) (  3, 10,  1) (  3, 10,  1)
     0.5725E-02    0.1521E-02    0.4069E-02    0.5322E-02    0.1035E-02
  (  2,  2,  1) (  3, 10, 10) (  3, 10,  1) (  3, 10, 10) (  3, 10, 10)
     0.4906E-03    0.4053E-03    0.1182E-02    0.1141E-02    0.4276E-03
  (  2,  3,  1) (  3, 10,  1) (  3, 10, 10) (  3, 10,  1) (  3, 10,  1)
     0.2476E-03   -0.7413E-04    0.1523E-03    0.2305E-03    0.5984E-04
  (  2,  3,  1) (  3,  3,  6) (  3, 10,  1) (  3, 10,  5) (  3, 10,  9)
    -0.3338E-04   -0.1856E-04    0.4867E-04    0.6362E-04    0.4071E-04
  (  2,  9,  1) (  3,  3,  6) (  3, 10,  5) (  3, 10,  1) (  3, 10,  1)
     0.1394E-04   -0.4930E-05
  (  2,  3,  1) (  2, 10,  2)


 OUTPUT CONTROL FOR STRESS PERIOD      2   TIME STEP     6
    PRINT BUDGET
    PRINT HEAD FOR ALL LAYERS
    SAVE HEAD FOR ALL LAYERS
    SAVE DRAWDOWN FOR ALL LAYERS
1
              HEAD IN LAYER   1 AT END OF TIME STEP   6 IN STRESS PERIOD    2
  ---------------------------------------------------------------------------

           1       2       3       4       5       6       7       8       9      10
 ...................................................................................
   1    22.58   22.23   21.58   21.16   20.96   20.96   21.16   21.58   22.23   22.58
   2    21.54   21.05   20.63   20.33   20.18   20.18   20.33   20.63   21.04   21.54
   3    20.03   19.55   19.18   18.94   18.82   18.82   18.94   19.18   19.54   20.03
   4    17.97   17.54   17.25   17.06   16.97   16.97   17.06   17.24   17.54   17.97
   5    15.04   14.95   14.85   14.77   14.73   14.73   14.77   14.85   14.95   15.04
   6    12.40   12.37   12.33   12.30   12.28   12.28   12.30   12.33   12.37   12.40
   7     9.81    9.78    9.74    9.70    9.68    9.68    9.70    9.74    9.78    9.80
   8     7.24    7.18    7.08    6.97    6.91    6.91    6.97    7.07    7.18    7.24
   9     4.84    4.66    4.34    3.97    3.82    3.82    3.97    4.34    4.66    4.84
  10     3.09    2.64    1.67    0.00    0.00    0.00    0.00    1.67    2.64    3.09
1
              HEAD IN LAYER   2 AT END OF TIME STEP   6 IN STRESS PERIOD    2
  ---------------------------------------------------------------------------

           1       2       3       4       5       6       7       8       9      10
 ...................................................................................
   1     5.13    5.18    5.21    5.22    5.22    5.22    5.20    5.17    5.14    5.08
   2     4.89    6.63    6.55    6.22    5.87    5.61    5.71    6.04    6.22    4.81
   3     4.58    5.93    5.69    5.08    4.11    2.70    3.15    4.45    5.17    4.48
   4     4.22    5.18    4.99    4.57    3.99    3.28    3.47    4.16    4.61    4.11
   5     3.81    4.31    4.25    4.08    3.90    3.77    3.79    3.93    4.02    3.71
   6     3.39    3.49    3.45    3.38    3.31    3.27    3.26    3.29    3.32    3.30
   7     2.96    2.64    2.56    2.51    2.47    2.45    2.45    2.47    2.54    2.89
   8     2.55    1.71    1.54    1.46    1.42    1.41    1.43    1.49    1.65    2.49
   9     2.16    0.78    0.45    0.26    0.18    0.18    0.25    0.42    0.75    2.12
  10     1.81    1.74    1.68    1.64    1.61    1.61    1.63    1.67    1.73    1.80
1
              HEAD IN LAYER   3 AT END OF TIME STEP   6 IN STRESS PERIOD    2
  ---------------------------------------------------------------------------

           1       2       3       4       5       6       7       8       9      10
 ...................................................................................
   1    -7.24   -7.31   -7.45   -7.64   -7.85   -8.00   -8.02   -7.94   -7.83   -7.76
   2    -7.36   -7.50   -7.79   -8.25   -8.83   -9.37   -9.31   -8.86   -8.45   -8.23
   3    -7.46   -7.70   -8.26   -9.31  -11.18  -14.49  -13.52  -10.83   -9.42   -8.81
   4    -7.25   -7.41   -7.79   -8.49   -9.59  -11.20  -10.82   -9.47   -8.65   -8.26
   5    -6.78   -6.87   -7.04   -7.29   -7.58   -7.84   -7.82   -7.63   -7.44   -7.33
   6    -6.13   -6.17   -6.25   -6.36   -6.47   -6.55   -6.57   -6.55   -6.50   -6.48
   7    -5.51   -5.53   -5.57   -5.61   -5.66   -5.69   -5.71   -5.72   -5.71   -5.71
   8    -5.00   -5.02   -5.03   -5.06   -5.08   -5.10   -5.11   -5.12   -5.12   -5.12
   9    -4.66   -4.66   -4.67   -4.69   -4.70   -4.71   -4.72   -4.72   -4.73   -4.73
  10    -4.48   -4.48   -4.49   -4.49   -4.50   -4.51   -4.52   -4.52   -4.52   -4.53

 HEAD WILL BE SAVED ON UNIT   21 AT END OF TIME STEP     6 IN STRESS PERIOD      2

 DRAWDOWN WILL BE SAVED ON UNIT   22 AT END OF TIME STEP     6 IN STRESS PERIOD      2



  -------------------------------------------------------------------------------------
  VOLUMETRIC BUDGET FOR ENTIRE MODEL AT END OF TIME STEP    6 IN STRESS PERIOD      2
  -------------------------------------------------------------------------------------

     CUMULATIVE VOLUMES      L**3       RATES FOR THIS TIME STEP      L**3/T
     ------------------                 ------------------------

           IN:                                      IN:
           ---                                      ---
             STORAGE =     2510013.3598               STORAGE =        5952.4726
       CONSTANT HEAD =           0.0000         CONSTANT HEAD =           0.0000
               WELLS =    10989000.0000                 WELLS =       30000.0000
    INST. IB STORAGE =     4623853.7499      INST. IB STORAGE =       12999.2811
    DELAY IB STORAGE =     3701499.0618      DELAY IB STORAGE =       10440.6719

            TOTAL IN =    21824366.1714              TOTAL IN =       59392.4256

          OUT:                                     OUT:
          ----                                     ----
             STORAGE =           0.0000               STORAGE =           0.0000
       CONSTANT HEAD =    10865367.3158         CONSTANT HEAD =       29392.4041
               WELLS =    10959000.0000                 WELLS =       30000.0000
    INST. IB STORAGE =       7.4760E-10      INST. IB STORAGE =       4.1228E-12
    DELAY IB STORAGE =           0.0000      DELAY IB STORAGE =           0.0000

           TOTAL OUT =    21824367.3158             TOTAL OUT =       59392.4041

            IN - OUT =          -1.1444              IN - OUT =       2.1485E-02

 PERCENT DISCREPANCY =          -0.00     PERCENT DISCREPANCY =           0.00


          TIME SUMMARY AT END OF TIME STEP     6 IN STRESS PERIOD      2
                    SECONDS     MINUTES      HOURS       DAYS        YEARS
                    -----------------------------------------------------------
   TIME STEP LENGTH 9.18681E+06 1.53113E+05  2551.9      106.33     0.29111    
 STRESS PERIOD TIME 3.15619E+07 5.26032E+05  8767.2      365.30      1.0001    
         TOTAL TIME 3.16483E+07 5.27472E+05  8791.2      366.30      1.0029    
 

                               VOLUMETRIC BUDGET FOR SYSTEMS OF DELAY INTERBEDS
                                          AT END OF TIME STEP  6 IN STRESS PERIOD  2

          |   C U M U L A T I V E   V O L U M E S   L**3           | R A T E S   F O R  T H I S  T I M E  S T E P   L**3/T  |
   SYSTEM |    CHANGE IN     BOUNDARY                    PERCENT   |    CHANGE IN     BOUNDARY                    PERCENT   |
   NUMBER |     STORAGE        FLOW           SUM      DISCREPANCY |     STORAGE        FLOW           SUM      DISCREPANCY |
  --------|--------------------------------------------------------|--------------------------------------------------------|
      1     3282.1        -3282.1        0.45475E-12    0.13855E-13     12.972        -12.972        0.35527E-14    0.27387E-13
      2    0.36982E+07   -0.36982E+07    0.46566E-09    0.12592E-13     10428.        -10428.        0.90949E-11    0.87219E-13
  --------|--------------------------------------------------------|--------------------------------------------------------|
 TOTALS:    0.37015E+07   -0.37015E+07    0.46566E-09    0.12580E-13     10441.        -10441.        0.90949E-11    0.87111E-13
1
                            STRESS PERIOD NO.      3, LENGTH =   365.3000    
                            -----------------------------------------------

                              NUMBER OF TIME STEPS =     6

                               MULTIPLIER FOR DELT =     1.300

                            INITIAL TIME STEP SIZE =   28.63744    

REUSING NON-PARAMETER WELLS FROM LAST STRESS PERIOD

14 WELLS
 
 SOLVING FOR HEAD 

    40 ITERATIONS FOR TIME STEP   1 IN STRESS PERIOD    3

 MAXIMUM HEAD CHANGE FOR EACH ITERATION:

    HEAD CHANGE   HEAD CHANGE   HEAD CHANGE   HEAD CHANGE   HEAD CHANGE
  LAYER,ROW,COL LAYER,ROW,COL LAYER,ROW,COL LAYER,ROW,COL LAYER,ROW,COL
 ----------------------------------------------------------------------
      1.275        0.3838       -0.9936        0.3949       -0.1433    
  (  3,  3,  6) (  3,  1, 10) (  3,  3,  7) (  3,  1,  1) (  3,  3,  6)
    -0.7568E-01   -0.5202E-01   -0.4415E-01   -0.3200E-01   -0.2401E-01
  (  3,  3,  6) (  3,  3,  7) (  3,  3,  6) (  3,  3,  6) (  3,  3,  6)
    -0.1708E-01   -0.1530E-01   -0.1149E-01   -0.8413E-02   -0.6528E-02
  (  3,  3,  6) (  3,  3,  6) (  3,  3,  6) (  3,  3,  6) (  3,  3,  6)
    -0.4557E-02   -0.4132E-02   -0.3040E-02   -0.2301E-02   -0.1734E-02
  (  3,  3,  6) (  3,  3,  6) (  3,  3,  6) (  3,  3,  6) (  3,  3,  6)
    -0.1259E-02   -0.1096E-02   -0.8331E-03   -0.6133E-03   -0.4779E-03
  (  3,  3,  6) (  3,  3,  6) (  3,  3,  6) (  3,  3,  6) (  3,  3,  6)
    -0.3395E-03   -0.2999E-03   -0.2229E-03   -0.1698E-03   -0.1281E-03
  (  3,  3,  6) (  3,  3,  6) (  3,  3,  6) (  3,  3,  6) (  3,  3,  6)
    -0.9509E-04   -0.8051E-04   -0.6186E-04   -0.4586E-04   -0.3566E-04
  (  3,  3,  6) (  3,  3,  6) (  3,  3,  6) (  3,  3,  6) (  3,  3,  6)
    -0.2569E-04   -0.2141E-04   -0.1601E-04   -0.1051E-04   -0.6348E-05
  (  3,  3,  6) (  3,  3,  6) (  3,  3,  6) (  3,  3,  6) (  3,  3,  6)


 OUTPUT CONTROL FOR STRESS PERIOD      3   TIME STEP     1
    SAVE HEAD FOR ALL LAYERS

 HEAD WILL BE SAVED ON UNIT   21 AT END OF TIME STEP     1 IN STRESS PERIOD      3
 
 SOLVING FOR HEAD 
    39 ITERATIONS FOR TIME STEP   2 IN STRESS PERIOD    3

 MAXIMUM HEAD CHANGE FOR EACH ITERATION:

    HEAD CHANGE   HEAD CHANGE   HEAD CHANGE   HEAD CHANGE   HEAD CHANGE
  LAYER,ROW,COL LAYER,ROW,COL LAYER,ROW,COL LAYER,ROW,COL LAYER,ROW,COL
 ----------------------------------------------------------------------
      1.020        0.2342       -0.8675        0.5073       -0.1342    
  (  3,  3,  6) (  3,  1, 10) (  3,  3,  6) (  3,  1,  1) (  3,  3,  6)
    -0.5109E-01   -0.6055E-01   -0.4391E-01   -0.3218E-01   -0.2399E-01
  (  2,  4,  1) (  3,  3,  6) (  3,  3,  6) (  3,  3,  6) (  3,  3,  6)
    -0.1625E-01   -0.1550E-01   -0.1159E-01   -0.8271E-02   -0.6349E-02
  (  3,  3,  6) (  3,  3,  6) (  3,  3,  6) (  3,  3,  6) (  3,  3,  6)
    -0.4249E-02   -0.4075E-02   -0.2989E-02   -0.2207E-02   -0.1651E-02
  (  3,  3,  6) (  3,  3,  6) (  3,  3,  6) (  3,  3,  6) (  3,  3,  6)
    -0.1155E-02   -0.1054E-02   -0.8001E-03   -0.5773E-03   -0.4467E-03
  (  3,  3,  6) (  3,  3,  6) (  3,  3,  6) (  3,  3,  6) (  3,  3,  6)
    -0.3073E-03   -0.2828E-03   -0.2106E-03   -0.1576E-03   -0.1178E-03
  (  3,  3,  6) (  3,  3,  6) (  3,  3,  6) (  3,  3,  6) (  3,  3,  6)
    -0.8523E-04   -0.7456E-04   -0.5769E-04   -0.4213E-04   -0.3252E-04
  (  3,  3,  6) (  3,  3,  6) (  3,  3,  6) (  3,  3,  6) (  3,  3,  6)
    -0.2275E-04   -0.1924E-04   -0.1357E-04   -0.9470E-05
  (  3,  3,  6) (  3,  3,  6) (  3,  3,  6) (  3,  3,  6)


 OUTPUT CONTROL FOR STRESS PERIOD      3   TIME STEP     2
    SAVE HEAD FOR ALL LAYERS

 HEAD WILL BE SAVED ON UNIT   21 AT END OF TIME STEP     2 IN STRESS PERIOD      3
 
 SOLVING FOR HEAD 
    39 ITERATIONS FOR TIME STEP   3 IN STRESS PERIOD    3

 MAXIMUM HEAD CHANGE FOR EACH ITERATION:

    HEAD CHANGE   HEAD CHANGE   HEAD CHANGE   HEAD CHANGE   HEAD CHANGE
  LAYER,ROW,COL LAYER,ROW,COL LAYER,ROW,COL LAYER,ROW,COL LAYER,ROW,COL
 ----------------------------------------------------------------------
     0.7709       -0.1527       -0.6066        0.2999       -0.1328    
  (  3,  3,  6) (  3, 10,  1) (  3,  3,  7) (  3,  1, 10) (  3,  3,  6)
    -0.4336E-01   -0.5732E-01   -0.4392E-01   -0.3064E-01   -0.2272E-01
  (  2,  5,  1) (  3,  3,  6) (  3,  3,  6) (  3,  3,  6) (  3,  3,  6)
    -0.1444E-01   -0.1483E-01   -0.1108E-01   -0.7708E-02   -0.5810E-02
  (  3,  3,  6) (  3,  3,  6) (  3,  3,  6) (  3,  3,  6) (  3,  3,  6)
    -0.3719E-02   -0.3779E-02   -0.2798E-02   -0.1998E-02   -0.1486E-02
  (  3,  3,  6) (  3,  3,  6) (  3,  3,  6) (  3,  3,  6) (  3,  3,  6)
    -0.9948E-03   -0.9569E-03   -0.7293E-03   -0.5148E-03   -0.3940E-03
  (  3,  3,  6) (  3,  3,  6) (  3,  3,  6) (  3,  3,  6) (  3,  3,  6)
    -0.2621E-03   -0.2514E-03   -0.1893E-03   -0.1391E-03   -0.1026E-03
  (  3,  3,  6) (  3,  3,  6) (  3,  3,  6) (  3,  3,  6) (  3,  3,  6)
    -0.7239E-04   -0.6593E-04   -0.5162E-04   -0.3676E-04   -0.2833E-04
  (  3,  3,  6) (  3,  3,  6) (  3,  3,  6) (  3,  3,  6) (  3,  3,  6)
    -0.1912E-04   -0.1584E-04   -0.1202E-04   -0.8304E-05
  (  3,  3,  6) (  3,  3,  6) (  3,  3,  6) (  3,  3,  6)


 OUTPUT CONTROL FOR STRESS PERIOD      3   TIME STEP     3
    SAVE HEAD FOR ALL LAYERS

 HEAD WILL BE SAVED ON UNIT   21 AT END OF TIME STEP     3 IN STRESS PERIOD      3
 
 SOLVING FOR HEAD 
    38 ITERATIONS FOR TIME STEP   4 IN STRESS PERIOD    3

 MAXIMUM HEAD CHANGE FOR EACH ITERATION:

    HEAD CHANGE   HEAD CHANGE   HEAD CHANGE   HEAD CHANGE   HEAD CHANGE
  LAYER,ROW,COL LAYER,ROW,COL LAYER,ROW,COL LAYER,ROW,COL LAYER,ROW,COL
 ----------------------------------------------------------------------
     0.5403       -0.1550       -0.4329        0.6452E-01   -0.8168E-01
  (  3,  3,  6) (  3,  3,  6) (  3,  3,  7) (  3,  3, 10) (  3,  3,  6)
    -0.4861E-01   -0.5733E-01   -0.4254E-01   -0.2824E-01   -0.2043E-01
  (  3,  3,  6) (  3,  3,  6) (  3,  3,  6) (  3,  3,  6) (  3,  3,  6)
    -0.1219E-01   -0.1349E-01   -0.1029E-01   -0.6841E-02   -0.5098E-02
  (  3,  3,  6) (  3,  3,  6) (  3,  3,  6) (  3,  3,  6) (  3,  3,  6)
    -0.3070E-02   -0.3331E-02   -0.2510E-02   -0.1739E-02   -0.1268E-02
  (  3,  3,  6) (  3,  3,  6) (  3,  3,  6) (  3,  3,  6) (  3,  3,  6)
    -0.8162E-03   -0.8227E-03   -0.6423E-03   -0.4375E-03   -0.3329E-03
  (  3,  3,  6) (  3,  3,  6) (  3,  3,  6) (  3,  3,  6) (  3,  3,  6)
    -0.2127E-03   -0.2134E-03   -0.1646E-03   -0.1181E-03   -0.8475E-04
  (  3,  3,  6) (  3,  3,  6) (  3,  3,  6) (  3,  3,  6) (  3,  3,  6)
    -0.5884E-04   -0.5600E-04   -0.4513E-04   -0.3143E-04   -0.2382E-04
  (  3,  3,  6) (  3,  3,  6) (  3,  3,  6) (  3,  3,  6) (  3,  3,  6)
    -0.1569E-04   -0.1259E-04   -0.9605E-05
  (  3,  3,  6) (  3,  3,  6) (  3,  3,  6)


 OUTPUT CONTROL FOR STRESS PERIOD      3   TIME STEP     4
    SAVE HEAD FOR ALL LAYERS

 HEAD WILL BE SAVED ON UNIT   21 AT END OF TIME STEP     4 IN STRESS PERIOD      3
 
 SOLVING FOR HEAD 
    38 ITERATIONS FOR TIME STEP   5 IN STRESS PERIOD    3

 MAXIMUM HEAD CHANGE FOR EACH ITERATION:

    HEAD CHANGE   HEAD CHANGE   HEAD CHANGE   HEAD CHANGE   HEAD CHANGE
  LAYER,ROW,COL LAYER,ROW,COL LAYER,ROW,COL LAYER,ROW,COL LAYER,ROW,COL
 ----------------------------------------------------------------------
     0.3288       -0.2003       -0.2278       -0.7156E-01   -0.7197E-01
  (  3,  3,  6) (  3,  3,  6) (  3,  3,  6) (  3,  2,  9) (  3,  3,  6)
    -0.4336E-01   -0.5069E-01   -0.3944E-01   -0.2446E-01   -0.1721E-01
  (  2,  6,  1) (  3,  3,  6) (  3,  3,  7) (  3,  3,  6) (  3,  3,  7)
    -0.9538E-02   -0.1139E-01   -0.9016E-02   -0.5703E-02   -0.4170E-02
  (  3,  3,  6) (  3,  3,  7) (  3,  3,  6) (  3,  3,  6) (  3,  3,  6)
    -0.2354E-02   -0.2713E-02   -0.2121E-02   -0.1422E-02   -0.1007E-02
  (  3,  3,  6) (  3,  3,  6) (  3,  3,  6) (  3,  3,  6) (  3,  3,  6)
    -0.6245E-03   -0.6574E-03   -0.5332E-03   -0.3495E-03   -0.2633E-03
  (  3,  3,  6) (  3,  3,  6) (  3,  3,  6) (  3,  3,  6) (  3,  3,  6)
    -0.1623E-03   -0.1691E-03   -0.1359E-03   -0.9561E-04   -0.6538E-04
  (  3,  3,  6) (  3,  3,  6) (  3,  3,  6) (  3,  3,  6) (  3,  3,  6)
    -0.4518E-04   -0.4480E-04   -0.3797E-04   -0.2549E-04   -0.1906E-04
  (  3,  3,  6) (  3,  3,  6) (  3,  3,  6) (  3,  3,  6) (  3,  3,  6)
    -0.1191E-04   -0.1025E-04   -0.6166E-05
  (  3,  3,  6) (  3,  3,  6) (  3,  3,  6)


 OUTPUT CONTROL FOR STRESS PERIOD      3   TIME STEP     5
    SAVE HEAD FOR ALL LAYERS

 HEAD WILL BE SAVED ON UNIT   21 AT END OF TIME STEP     5 IN STRESS PERIOD      3
 
 SOLVING FOR HEAD 
    36 ITERATIONS FOR TIME STEP   6 IN STRESS PERIOD    3

 MAXIMUM HEAD CHANGE FOR EACH ITERATION:

    HEAD CHANGE   HEAD CHANGE   HEAD CHANGE   HEAD CHANGE   HEAD CHANGE
  LAYER,ROW,COL LAYER,ROW,COL LAYER,ROW,COL LAYER,ROW,COL LAYER,ROW,COL
 ----------------------------------------------------------------------
    -0.2793       -0.2079       -0.1396       -0.8932E-01   -0.6030E-01
  (  3,  1,  1) (  3,  3,  6) (  3, 10, 10) (  3,  3,  6) (  3,  3,  6)
    -0.5044E-01   -0.4011E-01   -0.3370E-01   -0.1944E-01   -0.1334E-01
  (  2,  6,  1) (  3,  3,  7) (  3,  3,  7) (  3,  3,  6) (  3,  3,  7)
    -0.6740E-02   -0.8674E-02   -0.7188E-02   -0.4397E-02   -0.3090E-02
  (  3,  3,  6) (  3,  3,  7) (  3,  3,  6) (  3,  3,  6) (  3,  3,  6)
    -0.1653E-02   -0.1996E-02   -0.1659E-02   -0.1070E-02   -0.7452E-03
  (  3,  3,  6) (  3,  3,  6) (  3,  3,  6) (  3,  3,  6) (  3,  3,  6)
    -0.4385E-03   -0.4754E-03   -0.4081E-03   -0.2664E-03   -0.1913E-03
  (  3,  3,  6) (  3,  3,  6) (  3,  3,  6) (  3,  3,  6) (  3,  3,  6)
    -0.1140E-03   -0.1213E-03   -0.1078E-03   -0.7272E-04   -0.4727E-04
  (  3,  3,  6) (  3,  3,  6) (  3,  3,  6) (  3,  3,  6) (  3,  3,  6)
    -0.3220E-04   -0.3409E-04   -0.3111E-04   -0.2040E-04   -0.1466E-04
  (  3,  3,  6) (  3,  3,  6) (  3,  3,  6) (  3,  3,  6) (  3,  3,  6)
    -0.8251E-05
  (  3,  3,  6)


 OUTPUT CONTROL FOR STRESS PERIOD      3   TIME STEP     6
    PRINT BUDGET
    PRINT HEAD FOR ALL LAYERS
    SAVE HEAD FOR ALL LAYERS
    SAVE DRAWDOWN FOR ALL LAYERS
1
              HEAD IN LAYER   1 AT END OF TIME STEP   6 IN STRESS PERIOD    3
  ---------------------------------------------------------------------------

           1       2       3       4       5       6       7       8       9      10
 ...................................................................................
   1    22.46   22.12   21.46   21.05   20.85   20.84   21.04   21.46   22.12   22.46
   2    21.43   20.93   20.51   20.22   20.07   20.07   20.21   20.51   20.93   21.42
   3    19.92   19.43   19.07   18.82   18.70   18.70   18.82   19.06   19.42   19.91
   4    17.86   17.43   17.13   16.94   16.85   16.85   16.94   17.13   17.42   17.85
   5    14.93   14.84   14.74   14.66   14.62   14.62   14.66   14.74   14.84   14.93
   6    12.29   12.27   12.23   12.19   12.17   12.17   12.19   12.22   12.26   12.29
   7     9.71    9.68    9.64    9.60    9.58    9.58    9.60    9.64    9.68    9.70
   8     7.15    7.09    6.99    6.89    6.83    6.83    6.89    6.99    7.09    7.15
   9     4.76    4.59    4.27    3.92    3.77    3.77    3.92    4.27    4.59    4.76
  10     3.03    2.59    1.64    0.00    0.00    0.00    0.00    1.64    2.59    3.03
1
              HEAD IN LAYER   2 AT END OF TIME STEP   6 IN STRESS PERIOD    3
  ---------------------------------------------------------------------------

           1       2       3       4       5       6       7       8       9      10
 ...................................................................................
   1     3.92    3.97    3.99    4.00    4.00    3.99    3.97    3.94    3.90    3.84
   2     3.68    5.60    5.50    5.09    4.67    4.35    4.43    4.77    4.95    3.55
   3     3.36    4.84    4.55    3.82    2.75    1.26    1.69    3.01    3.79    3.20
   4     2.98    4.09    3.85    3.33    2.65    1.87    2.06    2.77    3.26    2.82
   5     2.56    3.24    3.17    2.95    2.72    2.54    2.55    2.70    2.80    2.41
   6     2.12    2.35    2.31    2.23    2.15    2.09    2.09    2.12    2.14    1.99
   7     1.67    1.34    1.26    1.21    1.18    1.16    1.16    1.18    1.25    1.56
   8     1.22    0.26    0.07   -0.00   -0.04   -0.05   -0.03    0.03    0.21    1.15
   9     0.81   -0.76   -1.12   -1.30   -1.38   -1.39   -1.32   -1.14   -0.79    0.76
  10     0.44    0.37    0.30    0.26    0.23    0.23    0.25    0.29    0.35    0.42
1
              HEAD IN LAYER   3 AT END OF TIME STEP   6 IN STRESS PERIOD    3
  ---------------------------------------------------------------------------

           1       2       3       4       5       6       7       8       9      10
 ...................................................................................
   1    -8.61   -8.73   -8.96   -9.27   -9.59   -9.83   -9.91   -9.85   -9.74   -9.67
   2    -8.85   -9.05   -9.46  -10.07  -10.80  -11.45  -11.45  -11.00  -10.58  -10.34
   3    -9.05   -9.37  -10.09  -11.33  -13.39  -16.85  -15.92  -13.21  -11.75  -11.11
   4    -8.74   -8.99   -9.54  -10.43  -11.71  -13.45  -13.11  -11.74  -10.87  -10.44
   5    -8.11   -8.25   -8.51   -8.88   -9.31   -9.68   -9.70   -9.48   -9.25   -9.11
   6    -7.54   -7.59   -7.70   -7.84   -7.98   -8.09   -8.13   -8.10   -8.06   -8.02
   7    -7.15   -7.17   -7.21   -7.26   -7.31   -7.35   -7.37   -7.37   -7.37   -7.36
   8    -6.94   -6.95   -6.97   -6.99   -7.01   -7.03   -7.03   -7.04   -7.04   -7.04
   9    -6.79   -6.80   -6.81   -6.82   -6.83   -6.84   -6.84   -6.85   -6.85   -6.85
  10    -6.71   -6.71   -6.72   -6.72   -6.73   -6.74   -6.74   -6.75   -6.75   -6.75

 HEAD WILL BE SAVED ON UNIT   21 AT END OF TIME STEP     6 IN STRESS PERIOD      3

 DRAWDOWN WILL BE SAVED ON UNIT   22 AT END OF TIME STEP     6 IN STRESS PERIOD      3



  -------------------------------------------------------------------------------------
  VOLUMETRIC BUDGET FOR ENTIRE MODEL AT END OF TIME STEP    6 IN STRESS PERIOD      3
  -------------------------------------------------------------------------------------

     CUMULATIVE VOLUMES      L**3       RATES FOR THIS TIME STEP      L**3/T
     ------------------                 ------------------------

           IN:                                      IN:
           ---                                      ---
             STORAGE =     4553677.7464               STORAGE =        5469.9520
       CONSTANT HEAD =           0.0000         CONSTANT HEAD =           0.0000
               WELLS =    21948000.0000                 WELLS =       30000.0000
    INST. IB STORAGE =     8599979.2488      INST. IB STORAGE =        9674.6669
    DELAY IB STORAGE =     8300549.5521      DELAY IB STORAGE =       13732.3667

            TOTAL IN =    43402206.5473              TOTAL IN =       58876.9856

          OUT:                                     OUT:
          ----                                     ----
             STORAGE =           0.0000               STORAGE =           0.0000
       CONSTANT HEAD =    21484210.1982         CONSTANT HEAD =       28877.0066
               WELLS =    21918000.0000                 WELLS =       30000.0000
    INST. IB STORAGE =       4.4042E-09      INST. IB STORAGE =       6.5606E-12
    DELAY IB STORAGE =           0.0000      DELAY IB STORAGE =           0.0000

           TOTAL OUT =    43402210.1982             TOTAL OUT =       58877.0066

            IN - OUT =          -3.6510              IN - OUT =      -2.0977E-02

 PERCENT DISCREPANCY =          -0.00     PERCENT DISCREPANCY =          -0.00


          TIME SUMMARY AT END OF TIME STEP     6 IN STRESS PERIOD      3
                    SECONDS     MINUTES      HOURS       DAYS        YEARS
                    -----------------------------------------------------------
   TIME STEP LENGTH 9.18681E+06 1.53113E+05  2551.9      106.33     0.29111    
 STRESS PERIOD TIME 3.15619E+07 5.26032E+05  8767.2      365.30      1.0001    
         TOTAL TIME 6.32102E+07 1.05350E+06  17558.      731.60      2.0030    
 

                               VOLUMETRIC BUDGET FOR SYSTEMS OF DELAY INTERBEDS
                                          AT END OF TIME STEP  6 IN STRESS PERIOD  3

          |   C U M U L A T I V E   V O L U M E S   L**3           | R A T E S   F O R  T H I S  T I M E  S T E P   L**3/T  |
   SYSTEM |    CHANGE IN     BOUNDARY                    PERCENT   |    CHANGE IN     BOUNDARY                    PERCENT   |
   NUMBER |     STORAGE        FLOW           SUM      DISCREPANCY |     STORAGE        FLOW           SUM      DISCREPANCY |
  --------|--------------------------------------------------------|--------------------------------------------------------|
      1     8111.4        -8111.4        0.18190E-11    0.22425E-13     13.738        -13.738        0.19540E-13    0.14224E-12
      2    0.82924E+07   -0.82924E+07    0.93132E-09    0.11231E-13     13719.        -13719.         0.0000         0.0000    
  --------|--------------------------------------------------------|--------------------------------------------------------|
 TOTALS:    0.83005E+07   -0.83005E+07    0.93132E-09    0.11220E-13     13732.        -13732.         0.0000         0.0000    
1
                            STRESS PERIOD NO.      4, LENGTH =   365.3000    
                            -----------------------------------------------

                              NUMBER OF TIME STEPS =     6

                               MULTIPLIER FOR DELT =     1.300

                            INITIAL TIME STEP SIZE =   28.63744    

REUSING NON-PARAMETER WELLS FROM LAST STRESS PERIOD

14 WELLS
 
 SOLVING FOR HEAD 

    36 ITERATIONS FOR TIME STEP   1 IN STRESS PERIOD    4

 MAXIMUM HEAD CHANGE FOR EACH ITERATION:

    HEAD CHANGE   HEAD CHANGE   HEAD CHANGE   HEAD CHANGE   HEAD CHANGE
  LAYER,ROW,COL LAYER,ROW,COL LAYER,ROW,COL LAYER,ROW,COL LAYER,ROW,COL
 ----------------------------------------------------------------------
      2.428         2.333        0.8030        -2.342        -1.875    
  (  3,  3,  7) (  3,  1, 10) (  3,  1,  1) (  3,  1, 10) (  3,  2,  6)
     0.1955       -0.3089       -0.1152        0.2086E-01   -0.2927E-01
  (  3,  7, 10) (  3,  3,  8) (  3,  3,  6) (  2,  3,  7) (  3,  3,  6)
    -0.2091E-01   -0.1587E-01   -0.1406E-01   -0.8815E-02   -0.6258E-02
  (  3,  3,  6) (  3,  3,  6) (  3,  3,  6) (  3,  3,  6) (  3,  3,  6)
    -0.4141E-02    0.2336E-02    0.1675E-02    0.1247E-02    0.9195E-03
  (  3,  3,  6) (  3,  1,  1) (  3,  2,  1) (  3,  1, 10) (  3,  1,  1)
     0.6211E-03    0.5927E-03    0.4120E-03    0.2990E-03    0.2311E-03
  (  3,  1, 10) (  3,  2,  1) (  3,  1, 10) (  3,  2,  1) (  3,  1, 10)
     0.1544E-03    0.1424E-03    0.1024E-03    0.7545E-04    0.5580E-04
  (  3,  1, 10) (  3,  1,  1) (  3,  2,  1) (  3,  1, 10) (  3,  2,  1)
     0.3741E-04    0.3611E-04    0.2547E-04    0.1830E-04    0.1397E-04
  (  3,  1, 10) (  3,  2,  1) (  3,  2, 10) (  3,  2,  1) (  3,  2, 10)
     0.9168E-05
  (  3,  1, 10)


 OUTPUT CONTROL FOR STRESS PERIOD      4   TIME STEP     1
    SAVE HEAD FOR ALL LAYERS

 HEAD WILL BE SAVED ON UNIT   21 AT END OF TIME STEP     1 IN STRESS PERIOD      4
 
 SOLVING FOR HEAD 
    38 ITERATIONS FOR TIME STEP   2 IN STRESS PERIOD    4

 MAXIMUM HEAD CHANGE FOR EACH ITERATION:

    HEAD CHANGE   HEAD CHANGE   HEAD CHANGE   HEAD CHANGE   HEAD CHANGE
  LAYER,ROW,COL LAYER,ROW,COL LAYER,ROW,COL LAYER,ROW,COL LAYER,ROW,COL
 ----------------------------------------------------------------------
      1.930         1.917        0.7146        -2.260        -1.888    
  (  3,  3,  7) (  3,  1, 10) (  3,  1,  1) (  3,  1, 10) (  3,  1,  5)
     0.6614        0.1432        0.1483        0.5423E-01   -0.2761E-01
  (  3,  1,  1) (  3,  2,  2) (  3, 10,  2) (  3, 10,  8) (  3,  3,  6)
     0.2123E-01   -0.1825E-01   -0.1261E-01   -0.8179E-02   -0.4076E-02
  (  2,  6,  1) (  3,  3,  7) (  3,  3,  6) (  3,  3,  6) (  3,  3,  6)
    -0.2341E-02   -0.2010E-02   -0.1514E-02   -0.1172E-02   -0.8730E-03
  (  3,  3,  6) (  3,  3,  6) (  3,  3,  6) (  3,  3,  6) (  3,  3,  6)
    -0.6609E-03   -0.5467E-03   -0.4303E-03   -0.3150E-03   -0.2500E-03
  (  3,  3,  6) (  3,  3,  6) (  3,  3,  6) (  3,  3,  6) (  3,  3,  6)
    -0.1810E-03   -0.1534E-03   -0.1171E-03   -0.9148E-04   -0.6797E-04
  (  3,  3,  6) (  3,  3,  6) (  3,  3,  6) (  3,  3,  6) (  3,  3,  6)
    -0.5282E-04   -0.4316E-04   -0.3468E-04   -0.2572E-04   -0.2044E-04
  (  3,  3,  6) (  3,  3,  6) (  3,  3,  6) (  3,  3,  6) (  3,  3,  6)
    -0.1446E-04   -0.1086E-04   -0.6174E-05
  (  3,  3,  6) (  3,  3,  6) (  3,  3,  6)


 OUTPUT CONTROL FOR STRESS PERIOD      4   TIME STEP     2
    SAVE HEAD FOR ALL LAYERS

 HEAD WILL BE SAVED ON UNIT   21 AT END OF TIME STEP     2 IN STRESS PERIOD      4
 
 SOLVING FOR HEAD 
    38 ITERATIONS FOR TIME STEP   3 IN STRESS PERIOD    4

 MAXIMUM HEAD CHANGE FOR EACH ITERATION:

    HEAD CHANGE   HEAD CHANGE   HEAD CHANGE   HEAD CHANGE   HEAD CHANGE
  LAYER,ROW,COL LAYER,ROW,COL LAYER,ROW,COL LAYER,ROW,COL LAYER,ROW,COL
 ----------------------------------------------------------------------
      1.469         1.460        0.4970        -2.158        -1.413    
  (  3,  3,  7) (  3,  1, 10) (  3,  1,  1) (  3,  1, 10) (  3,  1,  5)
     0.7849        0.2294        0.4540E-01   -0.4025E-01   -0.2772E-01
  (  3,  1,  1) (  3,  2,  2) (  2,  1,  8) (  3,  3,  6) (  3,  3,  6)
     0.2004E-01   -0.1781E-01   -0.1089E-01   -0.6805E-02   -0.5219E-02
  (  2,  7,  1) (  3,  3,  6) (  3,  3,  6) (  3,  3,  6) (  3,  3,  6)
    -0.3203E-02   -0.3386E-02   -0.2458E-02   -0.1774E-02   -0.1280E-02
  (  3,  3,  6) (  3,  3,  6) (  3,  3,  6) (  3,  3,  6) (  3,  3,  6)
    -0.8569E-03   -0.8409E-03   -0.6429E-03   -0.4402E-03   -0.3428E-03
  (  3,  3,  6) (  3,  3,  6) (  3,  3,  6) (  3,  3,  6) (  3,  3,  6)
    -0.2201E-03   -0.2179E-03   -0.1613E-03   -0.1190E-03   -0.8642E-04
  (  3,  3,  6) (  3,  3,  6) (  3,  3,  6) (  3,  3,  6) (  3,  3,  6)
    -0.6069E-04   -0.5534E-04   -0.4349E-04   -0.3080E-04   -0.2327E-04
  (  3,  3,  6) (  3,  3,  6) (  3,  3,  6) (  3,  3,  6) (  3,  3,  6)
    -0.1572E-04   -0.1183E-04   -0.8900E-05
  (  3,  3,  6) (  3,  3,  6) (  3,  3,  6)


 OUTPUT CONTROL FOR STRESS PERIOD      4   TIME STEP     3
    SAVE HEAD FOR ALL LAYERS

 HEAD WILL BE SAVED ON UNIT   21 AT END OF TIME STEP     3 IN STRESS PERIOD      4
 
 SOLVING FOR HEAD 
    38 ITERATIONS FOR TIME STEP   4 IN STRESS PERIOD    4

 MAXIMUM HEAD CHANGE FOR EACH ITERATION:

    HEAD CHANGE   HEAD CHANGE   HEAD CHANGE   HEAD CHANGE   HEAD CHANGE
  LAYER,ROW,COL LAYER,ROW,COL LAYER,ROW,COL LAYER,ROW,COL LAYER,ROW,COL
 ----------------------------------------------------------------------
      1.059         1.002        0.2474        -2.084        0.6026    
  (  3,  3,  7) (  3,  1, 10) (  3,  7,  3) (  3,  1, 10) (  3,  7,  2)
     0.6977E-01   -0.6600E-01   -0.5382E-01   -0.3422E-01   -0.2350E-01
  (  2,  1,  6) (  3,  3,  6) (  3,  3,  6) (  3,  3,  6) (  3,  3,  7)
    -0.1177E-01   -0.1273E-01   -0.9621E-02   -0.6251E-02   -0.4607E-02
  (  3,  3,  6) (  3,  3,  6) (  3,  3,  6) (  3,  3,  6) (  3,  3,  6)
    -0.2681E-02   -0.3026E-02   -0.2279E-02   -0.1545E-02   -0.1115E-02
  (  3,  3,  6) (  3,  3,  6) (  3,  3,  6) (  3,  3,  6) (  3,  3,  6)
    -0.6971E-03   -0.7314E-03   -0.5666E-03   -0.3804E-03   -0.2875E-03
  (  3,  3,  6) (  3,  3,  6) (  3,  3,  6) (  3,  3,  6) (  3,  3,  6)
    -0.1789E-03   -0.1843E-03   -0.1408E-03   -0.1004E-03   -0.7251E-04
  (  3,  3,  6) (  3,  3,  6) (  3,  3,  6) (  3,  3,  6) (  3,  3,  6)
    -0.4856E-04   -0.4640E-04   -0.3792E-04   -0.2610E-04   -0.1957E-04
  (  3,  3,  6) (  3,  3,  6) (  3,  3,  6) (  3,  3,  6) (  3,  3,  6)
    -0.1255E-04   -0.1013E-04   -0.5919E-05
  (  3,  3,  6) (  3,  3,  6) (  3,  3,  6)


 OUTPUT CONTROL FOR STRESS PERIOD      4   TIME STEP     4
    SAVE HEAD FOR ALL LAYERS

 HEAD WILL BE SAVED ON UNIT   21 AT END OF TIME STEP     4 IN STRESS PERIOD      4
 
 SOLVING FOR HEAD 
    37 ITERATIONS FOR TIME STEP   5 IN STRESS PERIOD    4

 MAXIMUM HEAD CHANGE FOR EACH ITERATION:

    HEAD CHANGE   HEAD CHANGE   HEAD CHANGE   HEAD CHANGE   HEAD CHANGE
  LAYER,ROW,COL LAYER,ROW,COL LAYER,ROW,COL LAYER,ROW,COL LAYER,ROW,COL
 ----------------------------------------------------------------------
     0.7043        0.5585       -0.3344        -1.765         1.038    
  (  3,  3,  7) (  3,  1, 10) (  3,  1, 10) (  3,  1, 10) (  3,  1,  1)
     0.1305       -0.7238E-01   -0.5784E-01   -0.3435E-01   -0.2327E-01
  (  2,  7, 10) (  3,  3,  6) (  3,  3,  7) (  3,  3,  6) (  3,  3,  6)
    -0.1134E-01   -0.1574E-01   -0.1238E-01   -0.7303E-02   -0.5163E-02
  (  3,  3,  6) (  3,  3,  6) (  3,  3,  6) (  3,  3,  6) (  3,  3,  6)
    -0.2581E-02   -0.3410E-02   -0.2658E-02   -0.1661E-02   -0.1144E-02
  (  3,  3,  6) (  3,  3,  6) (  3,  3,  6) (  3,  3,  6) (  3,  3,  6)
    -0.6346E-03   -0.7607E-03   -0.6095E-03   -0.3774E-03   -0.2779E-03
  (  3,  3,  6) (  3,  3,  6) (  3,  3,  6) (  3,  3,  6) (  3,  3,  6)
    -0.1550E-03   -0.1779E-03   -0.1404E-03   -0.9461E-04   -0.6598E-04
  (  3,  3,  6) (  3,  3,  6) (  3,  3,  6) (  3,  3,  6) (  3,  3,  6)
    -0.4131E-04   -0.4235E-04   -0.3542E-04   -0.2350E-04   -0.1708E-04
  (  3,  3,  6) (  3,  3,  6) (  3,  3,  6) (  3,  3,  6) (  3,  3,  6)
    -0.1034E-04   -0.6784E-05
  (  3,  3,  6) (  3,  3,  6)


 OUTPUT CONTROL FOR STRESS PERIOD      4   TIME STEP     5
    SAVE HEAD FOR ALL LAYERS

 HEAD WILL BE SAVED ON UNIT   21 AT END OF TIME STEP     5 IN STRESS PERIOD      4
 
 SOLVING FOR HEAD 
    36 ITERATIONS FOR TIME STEP   6 IN STRESS PERIOD    4

 MAXIMUM HEAD CHANGE FOR EACH ITERATION:

    HEAD CHANGE   HEAD CHANGE   HEAD CHANGE   HEAD CHANGE   HEAD CHANGE
  LAYER,ROW,COL LAYER,ROW,COL LAYER,ROW,COL LAYER,ROW,COL LAYER,ROW,COL
 ----------------------------------------------------------------------
     0.4046        0.1675       -0.5594        0.2407       -0.6862E-01
  (  3,  3,  7) (  3,  2,  9) (  3,  2,  6) (  3,  1,  1) (  3,  3,  7)
    -0.3449E-01   -0.5704E-01   -0.4796E-01   -0.2623E-01   -0.1715E-01
  (  3,  3,  7) (  3,  3,  7) (  3,  3,  7) (  3,  3,  6) (  3,  3,  7)
    -0.9253E-02   -0.1135E-01   -0.9476E-02   -0.5338E-02   -0.3646E-02
  (  2,  8,  1) (  3,  3,  7) (  3,  3,  6) (  3,  3,  7) (  3,  3,  6)
    -0.1711E-02   -0.2353E-02   -0.1954E-02   -0.1190E-02   -0.7860E-03
  (  3,  3,  6) (  3,  3,  6) (  3,  3,  6) (  3,  3,  6) (  3,  3,  6)
    -0.4275E-03   -0.5187E-03   -0.4430E-03   -0.2657E-03   -0.1958E-03
  (  3,  3,  6) (  3,  3,  6) (  3,  3,  6) (  3,  3,  6) (  3,  3,  6)
    -0.1046E-03   -0.1219E-03   -0.1030E-03   -0.6920E-04   -0.4570E-04
  (  3,  3,  6) (  3,  3,  6) (  3,  3,  6) (  3,  3,  6) (  3,  3,  6)
    -0.2845E-04   -0.2907E-04   -0.2780E-04   -0.1854E-04   -0.1299E-04
  (  3,  3,  6) (  3,  3,  6) (  3,  3,  6) (  3,  3,  6) (  3,  3,  6)
    -0.6316E-05
  (  3,  3,  6)


 OUTPUT CONTROL FOR STRESS PERIOD      4   TIME STEP     6
    PRINT BUDGET
    PRINT HEAD FOR ALL LAYERS
    SAVE HEAD FOR ALL LAYERS
    SAVE DRAWDOWN FOR ALL LAYERS
1
              HEAD IN LAYER   1 AT END OF TIME STEP   6 IN STRESS PERIOD    4
  ---------------------------------------------------------------------------

           1       2       3       4       5       6       7       8       9      10
 ...................................................................................
   1    22.34   22.00   21.34   20.92   20.72   20.72   20.92   21.34   21.99   22.34
   2    21.31   20.81   20.39   20.10   19.94   19.94   20.09   20.38   20.80   21.30
   3    19.80   19.31   18.95   18.70   18.58   18.58   18.70   18.94   19.30   19.79
   4    17.74   17.31   17.01   16.83   16.73   16.73   16.82   17.01   17.30   17.73
   5    14.82   14.73   14.63   14.55   14.50   14.50   14.54   14.62   14.73   14.81
   6    12.19   12.16   12.12   12.08   12.06   12.06   12.08   12.12   12.16   12.18
   7     9.61    9.59    9.55    9.51    9.49    9.49    9.51    9.55    9.58    9.61
   8     7.07    7.01    6.91    6.81    6.75    6.75    6.81    6.91    7.01    7.07
   9     4.70    4.53    4.22    3.87    3.72    3.72    3.87    4.22    4.53    4.70
  10     2.99    2.55    1.62    0.00    0.00    0.00    0.00    1.62    2.55    2.99
1
              HEAD IN LAYER   2 AT END OF TIME STEP   6 IN STRESS PERIOD    4
  ---------------------------------------------------------------------------

           1       2       3       4       5       6       7       8       9      10
 ...................................................................................
   1     3.30    3.34    3.36    3.37    3.36    3.35    3.33    3.30    3.26    3.20
   2     3.08    4.89    4.76    4.33    3.88    3.55    3.60    3.94    4.15    2.93
   3     2.79    4.14    3.81    3.06    1.96    0.45    0.86    2.18    2.99    2.60
   4     2.44    3.44    3.18    2.63    1.93    1.13    1.29    2.01    2.52    2.25
   5     2.05    2.69    2.59    2.36    2.10    1.91    1.91    2.05    2.16    1.87
   6     1.64    1.90    1.86    1.76    1.67    1.60    1.58    1.61    1.63    1.49
   7     1.22    1.00    0.92    0.87    0.83    0.80    0.79    0.81    0.86    1.10
   8     0.81   -0.00   -0.18   -0.25   -0.29   -0.30   -0.28   -0.23   -0.07    0.72
   9     0.42   -0.99   -1.33   -1.51   -1.59   -1.60   -1.53   -1.36   -1.03    0.36
  10     0.08    0.00   -0.06   -0.10   -0.13   -0.13   -0.11   -0.08   -0.02    0.04
1
              HEAD IN LAYER   3 AT END OF TIME STEP   6 IN STRESS PERIOD    4
  ---------------------------------------------------------------------------

           1       2       3       4       5       6       7       8       9      10
 ...................................................................................
   1    -9.90  -10.04  -10.30  -10.64  -11.00  -11.27  -11.38  -11.34  -11.24  -11.17
   2   -10.14  -10.36  -10.80  -11.45  -12.22  -12.91  -12.94  -12.51  -12.09  -11.85
   3   -10.30  -10.64  -11.40  -12.69  -14.80  -18.31  -17.40  -14.70  -13.24  -12.59
   4    -9.88  -10.16  -10.74  -11.66  -12.99  -14.78  -14.46  -13.10  -12.23  -11.80
   5    -9.08   -9.22   -9.51   -9.92  -10.38  -10.78  -10.82  -10.62  -10.39  -10.25
   6    -8.28   -8.35   -8.47   -8.63   -8.80   -8.94   -8.99   -8.98   -8.94   -8.91
   7    -7.68   -7.71   -7.76   -7.82   -7.89   -7.94   -7.98   -7.99   -7.99   -7.99
   8    -7.29   -7.30   -7.32   -7.35   -7.38   -7.40   -7.42   -7.43   -7.44   -7.44
   9    -7.08   -7.09   -7.10   -7.11   -7.12   -7.13   -7.14   -7.15   -7.15   -7.15
  10    -7.00   -7.00   -7.01   -7.01   -7.02   -7.02   -7.03   -7.03   -7.03   -7.03

 HEAD WILL BE SAVED ON UNIT   21 AT END OF TIME STEP     6 IN STRESS PERIOD      4

 DRAWDOWN WILL BE SAVED ON UNIT   22 AT END OF TIME STEP     6 IN STRESS PERIOD      4



  -------------------------------------------------------------------------------------
  VOLUMETRIC BUDGET FOR ENTIRE MODEL AT END OF TIME STEP    6 IN STRESS PERIOD      4
  -------------------------------------------------------------------------------------

     CUMULATIVE VOLUMES      L**3       RATES FOR THIS TIME STEP      L**3/T
     ------------------                 ------------------------

           IN:                                      IN:
           ---                                      ---
             STORAGE =     6506381.2698               STORAGE =        5275.2831
       CONSTANT HEAD =         365.6509         CONSTANT HEAD =           2.8512
               WELLS =    32907000.0000                 WELLS =       30000.0000
    INST. IB STORAGE =    11716753.2399      INST. IB STORAGE =        7931.7687
    DELAY IB STORAGE =    13692379.9961      DELAY IB STORAGE =       15280.6292

            TOTAL IN =    64822880.1567              TOTAL IN =       58490.5322

          OUT:                                     OUT:
          ----                                     ----
             STORAGE =           0.0000               STORAGE =           0.0000
       CONSTANT HEAD =    31945885.4393         CONSTANT HEAD =       28490.5470
               WELLS =    32877000.0000                 WELLS =       30000.0000
    INST. IB STORAGE =       1.0050E-08      INST. IB STORAGE =       8.2115E-12
    DELAY IB STORAGE =       1.4237E-11      DELAY IB STORAGE =           0.0000

           TOTAL OUT =    64822885.4393             TOTAL OUT =       58490.5470

            IN - OUT =          -5.2826              IN - OUT =      -1.4730E-02

 PERCENT DISCREPANCY =          -0.00     PERCENT DISCREPANCY =          -0.00


          TIME SUMMARY AT END OF TIME STEP     6 IN STRESS PERIOD      4
                    SECONDS     MINUTES      HOURS       DAYS        YEARS
                    -----------------------------------------------------------
   TIME STEP LENGTH 9.18681E+06 1.53113E+05  2551.9      106.33     0.29111    
 STRESS PERIOD TIME 3.15619E+07 5.26032E+05  8767.2      365.30      1.0001    
         TOTAL TIME 9.47722E+07 1.57954E+06  26326.      1096.9      3.0031    
 

                               VOLUMETRIC BUDGET FOR SYSTEMS OF DELAY INTERBEDS
                                          AT END OF TIME STEP  6 IN STRESS PERIOD  4

          |   C U M U L A T I V E   V O L U M E S   L**3           | R A T E S   F O R  T H I S  T I M E  S T E P   L**3/T  |
   SYSTEM |    CHANGE IN     BOUNDARY                    PERCENT   |    CHANGE IN     BOUNDARY                    PERCENT   |
   NUMBER |     STORAGE        FLOW           SUM      DISCREPANCY |     STORAGE        FLOW           SUM      DISCREPANCY |
  --------|--------------------------------------------------------|--------------------------------------------------------|
      1     13398.        -13398.        0.36380E-11    0.27153E-13     13.185        -13.185       -0.17764E-14   -0.13472E-13
      2    0.13679E+08   -0.13679E+08    0.18626E-08    0.13617E-13     15267.        -15267.        0.72760E-11    0.47657E-13
  --------|--------------------------------------------------------|--------------------------------------------------------|
 TOTALS:    0.13692E+08   -0.13692E+08    0.18626E-08    0.13604E-13     15281.        -15281.        0.72760E-11    0.47616E-13
1
                            STRESS PERIOD NO.      5, LENGTH =   365.3000    
                            -----------------------------------------------

                              NUMBER OF TIME STEPS =     6

                               MULTIPLIER FOR DELT =     1.300

                            INITIAL TIME STEP SIZE =   28.63744    

REUSING NON-PARAMETER WELLS FROM LAST STRESS PERIOD

14 WELLS
 
 SOLVING FOR HEAD 

    41 ITERATIONS FOR TIME STEP   1 IN STRESS PERIOD    5

 MAXIMUM HEAD CHANGE FOR EACH ITERATION:

    HEAD CHANGE   HEAD CHANGE   HEAD CHANGE   HEAD CHANGE   HEAD CHANGE
  LAYER,ROW,COL LAYER,ROW,COL LAYER,ROW,COL LAYER,ROW,COL LAYER,ROW,COL
 ----------------------------------------------------------------------
      2.753         3.221         1.657        -2.530        -2.592    
  (  3,  3,  7) (  3,  1, 10) (  3,  1,  1) (  3,  1, 10) (  3,  1,  5)
    -0.2610       -0.6448        -1.457        0.6707        0.9753E-01
  (  3,  1, 10) (  3,  3, 10) (  3,  1, 10) (  3,  1, 10) (  2, 10, 10)
    -0.4166E-01   -0.1799E-01   -0.1121E-01   -0.8472E-02   -0.6163E-02
  (  2, 10, 10) (  3,  3,  6) (  3,  3,  7) (  3,  3,  6) (  3,  3,  6)
    -0.3614E-02   -0.3464E-02    0.2727E-02    0.2281E-02    0.4195E-02
  (  3,  3,  7) (  3,  3,  6) (  3,  2, 10) (  3,  1,  1) (  3,  1, 10)
     0.2365E-02    0.2322E-02    0.1578E-02    0.1154E-02    0.8661E-03
  (  3,  1, 10) (  3,  1, 10) (  3,  1,  9) (  3,  1, 10) (  3,  1, 10)
     0.6015E-03    0.5322E-03    0.3914E-03    0.2799E-03    0.2086E-03
  (  3,  1, 10) (  3,  1,  9) (  3,  1, 10) (  3,  1, 10) (  3,  1, 10)
     0.1389E-03    0.1358E-03    0.9299E-04    0.6781E-04    0.5105E-04
  (  3,  1, 10) (  3,  1, 10) (  3,  1,  9) (  3,  1, 10) (  3,  1, 10)
     0.3542E-04    0.3134E-04    0.2300E-04    0.1651E-04    0.1225E-04
  (  3,  1, 10) (  3,  1,  9) (  3,  1, 10) (  3,  1, 10) (  3,  1, 10)
     0.8119E-05
  (  3,  1, 10)


 OUTPUT CONTROL FOR STRESS PERIOD      5   TIME STEP     1
    SAVE HEAD FOR ALL LAYERS

 HEAD WILL BE SAVED ON UNIT   21 AT END OF TIME STEP     1 IN STRESS PERIOD      5
 
 SOLVING FOR HEAD 
    39 ITERATIONS FOR TIME STEP   2 IN STRESS PERIOD    5

 MAXIMUM HEAD CHANGE FOR EACH ITERATION:

    HEAD CHANGE   HEAD CHANGE   HEAD CHANGE   HEAD CHANGE   HEAD CHANGE
  LAYER,ROW,COL LAYER,ROW,COL LAYER,ROW,COL LAYER,ROW,COL LAYER,ROW,COL
 ----------------------------------------------------------------------
      2.200         2.709         1.566        -2.304        -2.679    
  (  3,  3,  7) (  3,  1, 10) (  3,  1,  1) (  3,  1, 10) (  3,  1,  1)
    -0.1865       -0.4690       -0.9002        0.7090        0.5107E-01
  (  3,  1, 10) (  3,  3, 10) (  3,  1, 10) (  3,  1, 10) (  2,  6, 10)
    -0.2573E-01   -0.1821E-01   -0.1309E-01   -0.8059E-02   -0.6318E-02
  (  2,  7,  1) (  3,  3,  6) (  3,  3,  6) (  3,  3,  6) (  3,  3,  6)
    -0.1547E-02    0.2763E-02    0.3773E-02    0.2827E-02    0.2073E-02
  (  3,  3,  6) (  3,  1,  1) (  3,  1,  4) (  3,  1,  9) (  3,  1,  4)
     0.1309E-02    0.1352E-02    0.9159E-03    0.6540E-03    0.4875E-03
  (  3,  1, 10) (  3,  2,  2) (  3,  1,  9) (  3,  1,  4) (  3,  1, 10)
     0.3164E-03    0.3078E-03    0.2195E-03    0.1535E-03    0.1132E-03
  (  3,  1, 10) (  3,  1,  1) (  3,  1,  4) (  3,  1,  9) (  3,  1,  4)
     0.7192E-04    0.7295E-04    0.5018E-04    0.3603E-04    0.2678E-04
  (  3,  1, 10) (  3,  1, 10) (  3,  1,  9) (  3,  1,  4) (  3,  1, 10)
     0.1717E-04    0.1621E-04    0.1182E-04    0.6915E-05
  (  3,  1, 10) (  3,  1,  1) (  3,  1,  4) (  3,  1,  2)


 OUTPUT CONTROL FOR STRESS PERIOD      5   TIME STEP     2
    SAVE HEAD FOR ALL LAYERS

 HEAD WILL BE SAVED ON UNIT   21 AT END OF TIME STEP     2 IN STRESS PERIOD      5
 
 SOLVING FOR HEAD 
    40 ITERATIONS FOR TIME STEP   3 IN STRESS PERIOD    5

 MAXIMUM HEAD CHANGE FOR EACH ITERATION:

    HEAD CHANGE   HEAD CHANGE   HEAD CHANGE   HEAD CHANGE   HEAD CHANGE
  LAYER,ROW,COL LAYER,ROW,COL LAYER,ROW,COL LAYER,ROW,COL LAYER,ROW,COL
 ----------------------------------------------------------------------
      1.689         2.133         1.291        -2.085        -2.648    
  (  3,  3,  7) (  3,  1, 10) (  3,  1,  1) (  3,  1, 10) (  3,  1,  1)
     0.4659        0.1700       -0.4182E-01   -0.3489E-01   -0.2696E-01
  (  3, 10, 10) (  3,  9,  6) (  3,  3,  7) (  3,  3,  6) (  3,  3,  6)
    -0.1555E-01   -0.1667E-01   -0.1231E-01   -0.4620E-02   -0.4143E-02
  (  3,  3,  6) (  3,  3,  6) (  3,  3,  6) (  3,  3,  6) (  3,  3,  6)
     0.3229E-02    0.3063E-02    0.2190E-02    0.1556E-02    0.1089E-02
  (  3,  1, 10) (  3,  1,  9) (  3,  1, 10) (  3,  1, 10) (  3,  1, 10)
     0.7024E-03    0.7233E-03    0.4992E-03    0.3323E-03    0.2654E-03
  (  3,  1, 10) (  3,  1, 10) (  3,  1, 10) (  3,  1, 10) (  3,  1, 10)
     0.1629E-03    0.1562E-03    0.1130E-03    0.8286E-04    0.5712E-04
  (  3,  1, 10) (  3,  1,  9) (  3,  1, 10) (  3,  1, 10) (  3,  2,  1)
     0.3767E-04    0.3844E-04    0.2684E-04   -0.2621E-04   -0.3243E-04
  (  3,  1, 10) (  3,  1, 10) (  3,  1, 10) (  3,  3,  7) (  3,  3,  7)
    -0.2665E-04   -0.2215E-04   -0.1737E-04   -0.1342E-04   -0.9872E-05
  (  3,  3,  7) (  3,  3,  7) (  3,  3,  7) (  3,  3,  7) (  3,  3,  7)


 OUTPUT CONTROL FOR STRESS PERIOD      5   TIME STEP     3
    SAVE HEAD FOR ALL LAYERS

 HEAD WILL BE SAVED ON UNIT   21 AT END OF TIME STEP     3 IN STRESS PERIOD      5
 
 SOLVING FOR HEAD 
    36 ITERATIONS FOR TIME STEP   4 IN STRESS PERIOD    5

 MAXIMUM HEAD CHANGE FOR EACH ITERATION:

    HEAD CHANGE   HEAD CHANGE   HEAD CHANGE   HEAD CHANGE   HEAD CHANGE
  LAYER,ROW,COL LAYER,ROW,COL LAYER,ROW,COL LAYER,ROW,COL LAYER,ROW,COL
 ----------------------------------------------------------------------
      1.233         1.547        0.9031        -1.934        -2.422    
  (  3,  3,  7) (  3,  1, 10) (  3,  1,  1) (  3,  1, 10) (  3,  1,  1)
     0.8559        0.3945        0.1224        0.4787E-01   -0.1420    
  (  3,  1,  2) (  3,  9,  3) (  3, 10,  1) (  2, 10,  1) (  3, 10,  1)
     0.8329E-01   -0.1777E-01   -0.1054E-01   -0.5789E-02   -0.4211E-02
  (  2,  9,  1) (  3,  3,  7) (  3,  3,  6) (  3,  3,  6) (  3,  3,  6)
    -0.2346E-02   -0.2780E-02   -0.2102E-02   -0.1382E-02   -0.9896E-03
  (  3,  3,  6) (  3,  3,  6) (  3,  3,  6) (  3,  3,  6) (  3,  3,  6)
    -0.5931E-03   -0.6519E-03   -0.5028E-03   -0.3339E-03   -0.2458E-03
  (  3,  3,  6) (  3,  3,  6) (  3,  3,  6) (  3,  3,  6) (  3,  3,  6)
    -0.1493E-03   -0.1593E-03   -0.1218E-03   -0.8511E-04   -0.6078E-04
  (  3,  3,  6) (  3,  3,  6) (  3,  3,  6) (  3,  3,  6) (  3,  3,  6)
    -0.3993E-04   -0.3870E-04   -0.3120E-04   -0.2142E-04   -0.1566E-04
  (  3,  3,  6) (  3,  3,  6) (  3,  3,  6) (  3,  3,  6) (  3,  3,  6)
    -0.9670E-05
  (  3,  3,  6)


 OUTPUT CONTROL FOR STRESS PERIOD      5   TIME STEP     4
    SAVE HEAD FOR ALL LAYERS

 HEAD WILL BE SAVED ON UNIT   21 AT END OF TIME STEP     4 IN STRESS PERIOD      5
 
 SOLVING FOR HEAD 
    36 ITERATIONS FOR TIME STEP   5 IN STRESS PERIOD    5

 MAXIMUM HEAD CHANGE FOR EACH ITERATION:

    HEAD CHANGE   HEAD CHANGE   HEAD CHANGE   HEAD CHANGE   HEAD CHANGE
  LAYER,ROW,COL LAYER,ROW,COL LAYER,ROW,COL LAYER,ROW,COL LAYER,ROW,COL
 ----------------------------------------------------------------------
     0.8380        0.9956        0.3955        -1.861        0.4756    
  (  3,  3,  7) (  3,  1, 10) (  3,  1,  1) (  3,  1, 10) (  3, 10,  1)
     0.1396       -0.3588E-01   -0.4307E-01   -0.2807E-01   -0.2032E-01
  (  3,  1,  9) (  2, 10,  2) (  3,  3,  7) (  3,  3,  6) (  3,  3,  7)
    -0.7987E-02   -0.9396E-02   -0.7236E-02   -0.4496E-02   -0.3195E-02
  (  3,  3,  6) (  3,  3,  7) (  3,  3,  6) (  3,  3,  7) (  3,  3,  6)
    -0.1747E-02   -0.2099E-02   -0.1651E-02   -0.1069E-02   -0.7540E-03
  (  3,  3,  6) (  3,  3,  6) (  3,  3,  6) (  3,  3,  6) (  3,  3,  6)
    -0.4488E-03   -0.4942E-03   -0.3964E-03   -0.2587E-03   -0.1920E-03
  (  3,  3,  6) (  3,  3,  6) (  3,  3,  6) (  3,  3,  6) (  3,  3,  6)
    -0.1146E-03   -0.1225E-03   -0.9800E-04   -0.6846E-04   -0.4842E-04
  (  3,  3,  6) (  3,  3,  6) (  3,  3,  6) (  3,  3,  6) (  3,  3,  6)
    -0.3135E-04   -0.3089E-04   -0.2699E-04   -0.1822E-04   -0.1338E-04
  (  3,  3,  6) (  3,  3,  6) (  3,  3,  6) (  3,  3,  6) (  3,  3,  6)
    -0.6980E-05
  (  3,  3,  6)


 OUTPUT CONTROL FOR STRESS PERIOD      5   TIME STEP     5
    SAVE HEAD FOR ALL LAYERS

 HEAD WILL BE SAVED ON UNIT   21 AT END OF TIME STEP     5 IN STRESS PERIOD      5
 
 SOLVING FOR HEAD 
    36 ITERATIONS FOR TIME STEP   6 IN STRESS PERIOD    5

 MAXIMUM HEAD CHANGE FOR EACH ITERATION:

    HEAD CHANGE   HEAD CHANGE   HEAD CHANGE   HEAD CHANGE   HEAD CHANGE
  LAYER,ROW,COL LAYER,ROW,COL LAYER,ROW,COL LAYER,ROW,COL LAYER,ROW,COL
 ----------------------------------------------------------------------
     0.5057        0.4885       -0.2193        -1.603        0.8102    
  (  3,  3,  7) (  3,  2,  9) (  3,  1, 10) (  3,  1, 10) (  3,  1,  2)
     0.1052       -0.6417E-01   -0.5601E-01   -0.3026E-01   -0.1934E-01
  (  2,  8, 10) (  3,  3,  7) (  3,  3,  7) (  3,  3,  6) (  3,  3,  7)
     0.8599E-02   -0.1280E-01   -0.1078E-01   -0.5846E-02   -0.3867E-02
  (  2,  4,  1) (  3,  3,  7) (  3,  3,  6) (  3,  3,  6) (  3,  3,  6)
    -0.1679E-02   -0.2512E-02   -0.2108E-02   -0.1215E-02   -0.7934E-03
  (  3,  3,  6) (  3,  3,  6) (  3,  3,  6) (  3,  3,  6) (  3,  3,  6)
    -0.3940E-03   -0.5216E-03   -0.4450E-03   -0.2587E-03   -0.1824E-03
  (  3,  3,  6) (  3,  3,  6) (  3,  3,  6) (  3,  3,  6) (  3,  3,  6)
    -0.9309E-04   -0.1149E-03   -0.9665E-04   -0.6234E-04   -0.4210E-04
  (  3,  3,  6) (  3,  3,  6) (  3,  3,  6) (  3,  3,  6) (  3,  3,  6)
    -0.2452E-04   -0.2557E-04   -0.2396E-04   -0.1589E-04   -0.1040E-04
  (  3,  3,  6) (  3,  3,  6) (  3,  3,  6) (  3,  3,  6) (  3,  3,  6)
    -0.3903E-05
  (  3,  3,  6)


 OUTPUT CONTROL FOR STRESS PERIOD      5   TIME STEP     6
    PRINT BUDGET
    PRINT HEAD FOR ALL LAYERS
    SAVE HEAD FOR ALL LAYERS
    SAVE DRAWDOWN FOR ALL LAYERS
1
              HEAD IN LAYER   1 AT END OF TIME STEP   6 IN STRESS PERIOD    5
  ---------------------------------------------------------------------------

           1       2       3       4       5       6       7       8       9      10
 ...................................................................................
   1    22.22   21.87   21.22   20.80   20.60   20.60   20.80   21.21   21.87   22.21
   2    21.18   20.69   20.27   19.97   19.82   19.82   19.97   20.26   20.68   21.18
   3    19.68   19.19   18.82   18.58   18.46   18.45   18.57   18.82   19.18   19.67
   4    17.62   17.19   16.90   16.71   16.61   16.61   16.70   16.89   17.18   17.61
   5    14.71   14.62   14.52   14.44   14.39   14.39   14.43   14.51   14.61   14.70
   6    12.09   12.06   12.02   11.98   11.96   11.96   11.98   12.02   12.05   12.08
   7     9.52    9.50    9.46    9.42    9.40    9.40    9.42    9.46    9.49    9.52
   8     7.00    6.94    6.84    6.74    6.69    6.69    6.74    6.84    6.94    7.00
   9     4.65    4.48    4.17    3.83    3.68    3.68    3.83    4.17    4.48    4.65
  10     2.95    2.52    1.60    0.00    0.00    0.00    0.00    1.60    2.52    2.95
1
              HEAD IN LAYER   2 AT END OF TIME STEP   6 IN STRESS PERIOD    5
  ---------------------------------------------------------------------------

           1       2       3       4       5       6       7       8       9      10
 ...................................................................................
   1     2.79    2.83    2.85    2.85    2.85    2.83    2.81    2.78    2.74    2.69
   2     2.59    4.30    4.14    3.69    3.24    2.89    2.94    3.28    3.50    2.43
   3     2.32    3.57    3.21    2.45    1.33   -0.20    0.21    1.54    2.36    2.12
   4     2.00    2.92    2.63    2.07    1.36    0.54    0.70    1.42    1.94    1.79
   5     1.64    2.23    2.12    1.88    1.62    1.41    1.41    1.54    1.67    1.45
   6     1.26    1.52    1.47    1.37    1.27    1.20    1.18    1.20    1.22    1.10
   7     0.87    0.70    0.63    0.57    0.52    0.49    0.48    0.50    0.54    0.74
   8     0.48   -0.23   -0.39   -0.47   -0.51   -0.53   -0.51   -0.46   -0.31    0.38
   9     0.12   -1.17   -1.49   -1.67   -1.74   -1.75   -1.69   -1.52   -1.21    0.05
  10    -0.21   -0.28   -0.34   -0.38   -0.40   -0.41   -0.39   -0.35   -0.31   -0.24
1
              HEAD IN LAYER   3 AT END OF TIME STEP   6 IN STRESS PERIOD    5
  ---------------------------------------------------------------------------

           1       2       3       4       5       6       7       8       9      10
 ...................................................................................
   1   -11.00  -11.14  -11.42  -11.78  -12.15  -12.45  -12.57  -12.53  -12.44  -12.38
   2   -11.22  -11.45  -11.91  -12.57  -13.37  -14.08  -14.12  -13.70  -13.28  -13.04
   3   -11.33  -11.69  -12.46  -13.77  -15.91  -19.44  -18.55  -15.85  -14.39  -13.74
   4   -10.82  -11.10  -11.70  -12.65  -14.00  -15.80  -15.50  -14.14  -13.27  -12.84
   5    -9.88  -10.03  -10.33  -10.75  -11.24  -11.64  -11.70  -11.50  -11.27  -11.14
   6    -8.93   -9.00   -9.13   -9.30   -9.48   -9.62   -9.69   -9.68   -9.64   -9.61
   7    -8.17   -8.20   -8.25   -8.33   -8.40   -8.46   -8.50   -8.52   -8.52   -8.52
   8    -7.64   -7.66   -7.68   -7.71   -7.75   -7.78   -7.80   -7.81   -7.82   -7.82
   9    -7.32   -7.33   -7.35   -7.36   -7.38   -7.39   -7.41   -7.41   -7.42   -7.42
  10    -7.17   -7.18   -7.19   -7.20   -7.21   -7.21   -7.22   -7.23   -7.23   -7.23

 HEAD WILL BE SAVED ON UNIT   21 AT END OF TIME STEP     6 IN STRESS PERIOD      5

 DRAWDOWN WILL BE SAVED ON UNIT   22 AT END OF TIME STEP     6 IN STRESS PERIOD      5



  -------------------------------------------------------------------------------------
  VOLUMETRIC BUDGET FOR ENTIRE MODEL AT END OF TIME STEP    6 IN STRESS PERIOD      5
  -------------------------------------------------------------------------------------

     CUMULATIVE VOLUMES      L**3       RATES FOR THIS TIME STEP      L**3/T
     ------------------                 ------------------------

           IN:                                      IN:
           ---                                      ---
             STORAGE =     8398189.2720               STORAGE =        5118.6750
       CONSTANT HEAD =        2855.2179         CONSTANT HEAD =           9.4469
               WELLS =    43866000.0000                 WELLS =       30000.0000
    INST. IB STORAGE =    14387569.8690      INST. IB STORAGE =        6970.2956
    DELAY IB STORAGE =    19462283.9088      DELAY IB STORAGE =       16065.4842

            TOTAL IN =    86116898.2678              TOTAL IN =       58163.9016

          OUT:                                     OUT:
          ----                                     ----
             STORAGE =           0.0000               STORAGE =           0.0000
       CONSTANT HEAD =    42280905.7313         CONSTANT HEAD =       28163.9081
               WELLS =    43836000.0000                 WELLS =       30000.0000
    INST. IB STORAGE =       1.7406E-08      INST. IB STORAGE =       1.2026E-11
    DELAY IB STORAGE =       1.4237E-11      DELAY IB STORAGE =           0.0000

           TOTAL OUT =    86116905.7313             TOTAL OUT =       58163.9081

            IN - OUT =          -7.4635              IN - OUT =      -6.4943E-03

 PERCENT DISCREPANCY =          -0.00     PERCENT DISCREPANCY =          -0.00


          TIME SUMMARY AT END OF TIME STEP     6 IN STRESS PERIOD      5
                    SECONDS     MINUTES      HOURS       DAYS        YEARS
                    -----------------------------------------------------------
   TIME STEP LENGTH 9.18681E+06 1.53113E+05  2551.9      106.33     0.29111    
 STRESS PERIOD TIME 3.15619E+07 5.26032E+05  8767.2      365.30      1.0001    
         TOTAL TIME 1.26334E+08 2.10557E+06  35093.      1462.2      4.0033    
 

                               VOLUMETRIC BUDGET FOR SYSTEMS OF DELAY INTERBEDS
                                          AT END OF TIME STEP  6 IN STRESS PERIOD  5

          |   C U M U L A T I V E   V O L U M E S   L**3           | R A T E S   F O R  T H I S  T I M E  S T E P   L**3/T  |
   SYSTEM |    CHANGE IN     BOUNDARY                    PERCENT   |    CHANGE IN     BOUNDARY                    PERCENT   |
   NUMBER |     STORAGE        FLOW           SUM      DISCREPANCY |     STORAGE        FLOW           SUM      DISCREPANCY |
  --------|--------------------------------------------------------|--------------------------------------------------------|
      1     18474.        -18474.        0.36380E-11    0.19693E-13     13.419        -13.419       -0.17764E-14   -0.13237E-13
      2    0.19444E+08   -0.19444E+08     0.0000         0.0000         16052.        -16052.       -0.18190E-11   -0.11332E-13
  --------|--------------------------------------------------------|--------------------------------------------------------|
 TOTALS:    0.19462E+08   -0.19462E+08     0.0000         0.0000         16065.        -16065.       -0.18190E-11   -0.11322E-13
1
                            STRESS PERIOD NO.      6, LENGTH =   365.3000    
                            -----------------------------------------------

                              NUMBER OF TIME STEPS =     6

                               MULTIPLIER FOR DELT =     1.300

                            INITIAL TIME STEP SIZE =   28.63744    

REUSING NON-PARAMETER WELLS FROM LAST STRESS PERIOD

14 WELLS
 
 SOLVING FOR HEAD 

    43 ITERATIONS FOR TIME STEP   1 IN STRESS PERIOD    6

 MAXIMUM HEAD CHANGE FOR EACH ITERATION:

    HEAD CHANGE   HEAD CHANGE   HEAD CHANGE   HEAD CHANGE   HEAD CHANGE
  LAYER,ROW,COL LAYER,ROW,COL LAYER,ROW,COL LAYER,ROW,COL LAYER,ROW,COL
 ----------------------------------------------------------------------
      2.924         3.602         2.098        -2.493        -2.970    
  (  3,  1, 10) (  3,  1, 10) (  3,  1,  1) (  3,  1, 10) (  3,  1,  1)
    -0.3088       -0.7273        -1.685        0.3730        0.3333E-01
  (  3,  1, 10) (  3,  2,  9) (  3,  1, 10) (  3, 10,  1) (  2, 10,  1)
    -0.5941E-01   -0.1440E-01   -0.9310E-02   -0.7538E-02   -0.4753E-02
  (  2,  8,  1) (  3,  3,  7) (  3,  3,  6) (  3,  3,  6) (  3,  3,  7)
    -0.3479E-02   -0.2289E-02    0.1216E-02    0.1941E-02    0.3272E-02
  (  3,  3,  6) (  3,  3,  7) (  3,  1,  2) (  3,  1,  1) (  3,  2, 10)
     0.1961E-02    0.3980E-02    0.2769E-02    0.1998E-02    0.1502E-02
  (  3,  1,  1) (  3,  1,  6) (  3,  1,  2) (  3,  1,  2) (  3,  1,  2)
     0.9902E-03    0.9668E-03    0.6709E-03    0.4897E-03    0.3657E-03
  (  3,  1,  2) (  3,  1,  2) (  3,  1,  2) (  3,  1,  2) (  3,  1,  2)
     0.2440E-03    0.2315E-03    0.1672E-03    0.1191E-03    0.8969E-04
  (  3,  1,  2) (  3,  1,  2) (  3,  1,  2) (  3,  1,  2) (  3,  1,  2)
     0.5968E-04    0.5760E-04    0.4015E-04    0.2942E-04    0.2201E-04
  (  3,  1,  2) (  3,  1,  2) (  3,  1,  2) (  3,  1,  2) (  3,  1,  2)
     0.1484E-04    0.1372E-04    0.9661E-05
  (  3,  1,  2) (  3,  1,  2) (  3,  1,  2)


 OUTPUT CONTROL FOR STRESS PERIOD      6   TIME STEP     1
    SAVE HEAD FOR ALL LAYERS

 HEAD WILL BE SAVED ON UNIT   21 AT END OF TIME STEP     1 IN STRESS PERIOD      6
 
 SOLVING FOR HEAD 
    41 ITERATIONS FOR TIME STEP   2 IN STRESS PERIOD    6

 MAXIMUM HEAD CHANGE FOR EACH ITERATION:

    HEAD CHANGE   HEAD CHANGE   HEAD CHANGE   HEAD CHANGE   HEAD CHANGE
  LAYER,ROW,COL LAYER,ROW,COL LAYER,ROW,COL LAYER,ROW,COL LAYER,ROW,COL
 ----------------------------------------------------------------------
      2.354         3.055         2.030        -2.223        -3.086    
  (  3,  1, 10) (  3,  1, 10) (  3,  1,  1) (  3,  1, 10) (  3,  1,  1)
    -0.2293       -0.5589        -1.410        0.6365        0.9052E-01
  (  3,  1, 10) (  3,  2, 10) (  3,  1, 10) (  3,  1, 10) (  2, 10, 10)
    -0.5008E-01   -0.1449E-01   -0.1112E-01   -0.6688E-02   -0.5463E-02
  (  2, 10, 10) (  3,  3,  6) (  3,  3,  7) (  3,  3,  6) (  3,  3,  7)
    -0.2114E-02   -0.2401E-02    0.2899E-02    0.2718E-02    0.4023E-02
  (  3,  3,  6) (  3,  3,  6) (  3,  2, 10) (  3,  1,  1) (  3,  1,  7)
     0.2848E-02    0.2642E-02    0.1779E-02    0.1278E-02    0.9396E-03
  (  3,  1,  9) (  3,  2,  4) (  3,  1,  9) (  3,  1,  9) (  3,  1,  9)
     0.6154E-03    0.5955E-03    0.4308E-03    0.2969E-03    0.2211E-03
  (  3,  1,  9) (  3,  2,  4) (  3,  1,  9) (  3,  1,  9) (  3,  1,  9)
     0.1415E-03    0.1454E-03    0.9798E-04    0.7052E-04    0.5219E-04
  (  3,  1,  9) (  3,  2,  4) (  3,  1,  9) (  3,  1,  9) (  3,  1,  9)
     0.3462E-04    0.3281E-04    0.2418E-04    0.1665E-04    0.1237E-04
  (  3,  1,  9) (  3,  2,  4) (  3,  2,  4) (  3,  1,  9) (  3,  1,  9)
     0.7336E-05
  (  3,  1,  9)


 OUTPUT CONTROL FOR STRESS PERIOD      6   TIME STEP     2
    SAVE HEAD FOR ALL LAYERS

 HEAD WILL BE SAVED ON UNIT   21 AT END OF TIME STEP     2 IN STRESS PERIOD      6
 
 SOLVING FOR HEAD 
    39 ITERATIONS FOR TIME STEP   3 IN STRESS PERIOD    6

 MAXIMUM HEAD CHANGE FOR EACH ITERATION:

    HEAD CHANGE   HEAD CHANGE   HEAD CHANGE   HEAD CHANGE   HEAD CHANGE
  LAYER,ROW,COL LAYER,ROW,COL LAYER,ROW,COL LAYER,ROW,COL LAYER,ROW,COL
 ----------------------------------------------------------------------
      1.814         2.435         1.732        -1.977        -3.051    
  (  3,  1, 10) (  3,  1, 10) (  3,  1,  1) (  3,  1, 10) (  3,  1,  1)
     0.3149       -0.3579       -0.1964        0.6845E-01   -0.2340E-01
  (  3, 10, 10) (  3,  2, 10) (  3,  3,  8) (  3,  3, 10) (  3,  3,  6)
    -0.1993E-01   -0.1533E-01   -0.1024E-01   -0.6031E-02   -0.3624E-02
  (  2,  6,  1) (  3,  3,  6) (  3,  3,  7) (  3,  3,  6) (  3,  3,  7)
     0.1472E-02    0.4827E-02    0.4447E-02    0.3302E-02    0.2360E-02
  (  3,  7,  3) (  3,  1,  1) (  3,  1, 10) (  3,  1, 10) (  3,  1, 10)
     0.1417E-02    0.1606E-02    0.1057E-02    0.7220E-03    0.5401E-03
  (  3,  1, 10) (  3,  1, 10) (  3,  1,  9) (  3,  1, 10) (  3,  1, 10)
     0.3316E-03    0.3383E-03    0.2420E-03    0.1645E-03    0.1151E-03
  (  3,  1, 10) (  3,  2, 10) (  3,  1, 10) (  3,  1, 10) (  3,  1, 10)
     0.7091E-04    0.7901E-04    0.5277E-04    0.3523E-04    0.2721E-04
  (  3,  1, 10) (  3,  1, 10) (  3,  2, 10) (  3,  1, 10) (  3,  1, 10)
     0.1638E-04    0.1644E-04    0.1141E-04    0.6512E-05
  (  3,  1, 10) (  3,  2, 10) (  3,  1, 10) (  3,  1, 10)


 OUTPUT CONTROL FOR STRESS PERIOD      6   TIME STEP     3
    SAVE HEAD FOR ALL LAYERS

 HEAD WILL BE SAVED ON UNIT   21 AT END OF TIME STEP     3 IN STRESS PERIOD      6
 
 SOLVING FOR HEAD 
    35 ITERATIONS FOR TIME STEP   4 IN STRESS PERIOD    6

 MAXIMUM HEAD CHANGE FOR EACH ITERATION:

    HEAD CHANGE   HEAD CHANGE   HEAD CHANGE   HEAD CHANGE   HEAD CHANGE
  LAYER,ROW,COL LAYER,ROW,COL LAYER,ROW,COL LAYER,ROW,COL LAYER,ROW,COL
 ----------------------------------------------------------------------
      1.322         1.799         1.308        -1.774        -2.876    
  (  3,  1, 10) (  3,  1, 10) (  3,  1,  1) (  3,  1, 10) (  3,  1,  1)
     0.6911        0.3306        0.6806E-01    0.3472E-01   -0.2533E-01
  (  3, 10,  1) (  3,  9,  3) (  2,  1,  6) (  2, 10,  1) (  3,  3,  7)
     0.3813E-01   -0.1598E-01   -0.8487E-02   -0.5521E-02    0.3417E-02
  (  2,  6,  1) (  3,  3,  7) (  3,  3,  6) (  3,  3,  7) (  3,  1, 10)
    -0.1906E-02    0.1873E-02    0.1351E-02    0.9812E-03    0.6584E-03
  (  2,  6,  1) (  3,  1, 10) (  3,  1, 10) (  3,  1, 10) (  3,  1,  1)
     0.4503E-03    0.4435E-03    0.3161E-03    0.2010E-03    0.1677E-03
  (  3,  1, 10) (  3,  1, 10) (  3,  1, 10) (  3,  1, 10) (  3,  1, 10)
     0.9898E-04    0.9669E-04    0.6524E-04    0.5277E-04    0.3314E-04
  (  3,  1, 10) (  3,  1, 10) (  3,  1, 10) (  3,  1, 10) (  3,  1,  3)
    -0.2702E-04   -0.2186E-04   -0.1909E-04   -0.1342E-04   -0.9115E-05
  (  3,  3,  6) (  3,  3,  6) (  3,  3,  6) (  3,  3,  6) (  3,  3,  6)


 OUTPUT CONTROL FOR STRESS PERIOD      6   TIME STEP     4
    SAVE HEAD FOR ALL LAYERS

 HEAD WILL BE SAVED ON UNIT   21 AT END OF TIME STEP     4 IN STRESS PERIOD      6
 
 SOLVING FOR HEAD 
    36 ITERATIONS FOR TIME STEP   5 IN STRESS PERIOD    6

 MAXIMUM HEAD CHANGE FOR EACH ITERATION:

    HEAD CHANGE   HEAD CHANGE   HEAD CHANGE   HEAD CHANGE   HEAD CHANGE
  LAYER,ROW,COL LAYER,ROW,COL LAYER,ROW,COL LAYER,ROW,COL LAYER,ROW,COL
 ----------------------------------------------------------------------
     0.8955         1.198        0.7528        -1.690        -1.984    
  (  3,  3, 10) (  3,  1, 10) (  3,  1,  1) (  3,  1, 10) (  3,  1,  1)
     0.7132        0.3765        0.9601E-01    0.3336E-01   -0.2638E-01
  (  3,  1, 10) (  3,  2,  2) (  2,  1,  9) (  2, 10,  1) (  2, 10, 10)
     0.2954E-01   -0.1396E-01   -0.1065E-01   -0.6080E-02   -0.4231E-02
  (  2,  7,  1) (  3,  3,  6) (  3,  3,  6) (  3,  3,  6) (  3,  3,  6)
    -0.2020E-02   -0.2803E-02   -0.2197E-02   -0.1335E-02   -0.9102E-03
  (  3,  3,  6) (  3,  3,  6) (  3,  3,  6) (  3,  3,  6) (  3,  3,  6)
    -0.4780E-03   -0.6102E-03   -0.4869E-03   -0.2956E-03   -0.2134E-03
  (  3,  3,  6) (  3,  3,  6) (  3,  3,  6) (  3,  3,  6) (  3,  3,  6)
    -0.1145E-03   -0.1369E-03   -0.1096E-03   -0.7159E-04   -0.4995E-04
  (  3,  3,  6) (  3,  3,  6) (  3,  3,  6) (  3,  3,  6) (  3,  3,  6)
    -0.2924E-04   -0.3060E-04   -0.2568E-04   -0.1745E-04   -0.1196E-04
  (  3,  3,  6) (  3,  3,  6) (  3,  3,  6) (  3,  3,  6) (  3,  3,  6)
    -0.5898E-05
  (  3,  3,  6)


 OUTPUT CONTROL FOR STRESS PERIOD      6   TIME STEP     5
    SAVE HEAD FOR ALL LAYERS

 HEAD WILL BE SAVED ON UNIT   21 AT END OF TIME STEP     5 IN STRESS PERIOD      6
 
 SOLVING FOR HEAD 
    35 ITERATIONS FOR TIME STEP   6 IN STRESS PERIOD    6

 MAXIMUM HEAD CHANGE FOR EACH ITERATION:

    HEAD CHANGE   HEAD CHANGE   HEAD CHANGE   HEAD CHANGE   HEAD CHANGE
  LAYER,ROW,COL LAYER,ROW,COL LAYER,ROW,COL LAYER,ROW,COL LAYER,ROW,COL
 ----------------------------------------------------------------------
     0.5397        0.6510        0.1689        -1.681        0.7723    
  (  3,  3, 10) (  3,  1, 10) (  3,  2,  1) (  3,  1, 10) (  3, 10,  1)
     0.6938E-01   -0.5869E-01   -0.5212E-01   -0.2476E-01   -0.1496E-01
  (  2,  2,  1) (  3,  3,  7) (  3,  3,  7) (  3,  3,  7) (  3,  3,  7)
    -0.1069E-01   -0.9759E-02   -0.8211E-02   -0.4504E-02   -0.2910E-02
  (  2,  7,  1) (  3,  3,  7) (  3,  3,  6) (  3,  3,  7) (  3,  3,  6)
    -0.1284E-02   -0.1905E-02   -0.1612E-02   -0.9180E-03   -0.6068E-03
  (  3,  3,  6) (  3,  3,  6) (  3,  3,  6) (  3,  3,  6) (  3,  3,  6)
    -0.2987E-03   -0.3947E-03   -0.3361E-03   -0.1984E-03   -0.1382E-03
  (  3,  3,  6) (  3,  3,  6) (  3,  3,  6) (  3,  3,  6) (  3,  3,  6)
    -0.7137E-04   -0.8676E-04   -0.7390E-04   -0.4804E-04   -0.3219E-04
  (  3,  3,  6) (  3,  3,  6) (  3,  3,  6) (  3,  3,  6) (  3,  3,  6)
    -0.1868E-04   -0.1809E-04   -0.1734E-04   -0.1156E-04   -0.6250E-05
  (  3,  3,  6) (  3,  3,  6) (  3,  3,  6) (  3,  3,  6) (  3,  3,  6)


 OUTPUT CONTROL FOR STRESS PERIOD      6   TIME STEP     6
    PRINT BUDGET
    PRINT HEAD FOR ALL LAYERS
    SAVE HEAD FOR ALL LAYERS
    SAVE DRAWDOWN FOR ALL LAYERS
1
              HEAD IN LAYER   1 AT END OF TIME STEP   6 IN STRESS PERIOD    6
  ---------------------------------------------------------------------------

           1       2       3       4       5       6       7       8       9      10
 ...................................................................................
   1    22.10   21.75   21.09   20.67   20.47   20.47   20.67   21.09   21.74   22.09
   2    21.06   20.56   20.14   19.85   19.69   19.69   19.84   20.14   20.55   21.05
   3    19.56   19.07   18.70   18.46   18.33   18.33   18.45   18.69   19.06   19.55
   4    17.51   17.08   16.78   16.59   16.50   16.49   16.58   16.77   17.07   17.50
   5    14.60   14.51   14.41   14.33   14.28   14.28   14.32   14.40   14.50   14.59
   6    11.99   11.96   11.92   11.88   11.86   11.86   11.88   11.92   11.96   11.98
   7     9.44    9.41    9.38    9.34    9.32    9.31    9.34    9.37    9.41    9.43
   8     6.93    6.87    6.78    6.68    6.62    6.62    6.68    6.78    6.87    6.93
   9     4.60    4.43    4.13    3.79    3.65    3.64    3.79    4.13    4.43    4.60
  10     2.92    2.50    1.58    0.00    0.00    0.00    0.00    1.58    2.50    2.92
1
              HEAD IN LAYER   2 AT END OF TIME STEP   6 IN STRESS PERIOD    6
  ---------------------------------------------------------------------------

           1       2       3       4       5       6       7       8       9      10
 ...................................................................................
   1     2.34    2.37    2.39    2.39    2.39    2.37    2.35    2.32    2.28    2.24
   2     2.15    3.77    3.60    3.14    2.68    2.33    2.38    2.71    2.95    1.99
   3     1.90    3.06    2.69    1.92    0.79   -0.75   -0.34    0.98    1.82    1.70
   4     1.60    2.45    2.15    1.58    0.86    0.04    0.20    0.91    1.45    1.39
   5     1.26    1.82    1.70    1.45    1.19    0.98    0.97    1.10    1.23    1.06
   6     0.90    1.17    1.12    1.02    0.91    0.84    0.82    0.83    0.85    0.73
   7     0.54    0.41    0.35    0.29    0.24    0.21    0.19    0.20    0.24    0.40
   8     0.17   -0.46   -0.61   -0.69   -0.73   -0.75   -0.73   -0.69   -0.55    0.07
   9    -0.17   -1.36   -1.66   -1.84   -1.92   -1.93   -1.86   -1.70   -1.41   -0.25
  10    -0.48   -0.55   -0.61   -0.65   -0.67   -0.67   -0.66   -0.63   -0.58   -0.52
1
              HEAD IN LAYER   3 AT END OF TIME STEP   6 IN STRESS PERIOD    6
  ---------------------------------------------------------------------------

           1       2       3       4       5       6       7       8       9      10
 ...................................................................................
   1   -11.96  -12.11  -12.39  -12.76  -13.15  -13.46  -13.59  -13.56  -13.47  -13.41
   2   -12.16  -12.40  -12.87  -13.55  -14.36  -15.08  -15.13  -14.71  -14.29  -14.06
   3   -12.23  -12.59  -13.37  -14.71  -16.87  -20.41  -19.53  -16.82  -15.36  -14.71
   4   -11.63  -11.93  -12.53  -13.49  -14.86  -16.68  -16.39  -15.03  -14.16  -13.73
   5   -10.59  -10.75  -11.05  -11.48  -11.98  -12.39  -12.46  -12.26  -12.03  -11.90
   6    -9.51   -9.59   -9.72   -9.90  -10.09  -10.24  -10.31  -10.30  -10.27  -10.24
   7    -8.64   -8.67   -8.73   -8.81   -8.88   -8.95   -8.99   -9.01   -9.02   -9.02
   8    -8.01   -8.03   -8.06   -8.09   -8.13   -8.16   -8.18   -8.20   -8.21   -8.21
   9    -7.62   -7.63   -7.65   -7.66   -7.68   -7.70   -7.71   -7.72   -7.73   -7.73
  10    -7.43   -7.44   -7.45   -7.46   -7.47   -7.48   -7.49   -7.50   -7.50   -7.50

 HEAD WILL BE SAVED ON UNIT   21 AT END OF TIME STEP     6 IN STRESS PERIOD      6

 DRAWDOWN WILL BE SAVED ON UNIT   22 AT END OF TIME STEP     6 IN STRESS PERIOD      6



  -------------------------------------------------------------------------------------
  VOLUMETRIC BUDGET FOR ENTIRE MODEL AT END OF TIME STEP    6 IN STRESS PERIOD      6
  -------------------------------------------------------------------------------------

     CUMULATIVE VOLUMES      L**3       RATES FOR THIS TIME STEP      L**3/T
     ------------------                 ------------------------

           IN:                                      IN:
           ---                                      ---
             STORAGE =    10236944.4362               STORAGE =        4978.8047
       CONSTANT HEAD =        7727.3482         CONSTANT HEAD =          15.9218
               WELLS =    54825000.0000                 WELLS =       30000.0000
    INST. IB STORAGE =    16803622.6274      INST. IB STORAGE =        6415.7389
    DELAY IB STORAGE =    25425092.3856      DELAY IB STORAGE =       16455.8068

            TOTAL IN =   107298386.7974              TOTAL IN =       57866.2722

          OUT:                                     OUT:
          ----                                     ----
             STORAGE =           0.0000               STORAGE =           0.0000
       CONSTANT HEAD =    52503393.9425         CONSTANT HEAD =       27866.2709
               WELLS =    54795000.0000                 WELLS =       30000.0000
    INST. IB STORAGE =       2.5428E-08      INST. IB STORAGE =       1.3168E-11
    DELAY IB STORAGE =       1.4237E-11      DELAY IB STORAGE =           0.0000

           TOTAL OUT =   107298393.9425             TOTAL OUT =       57866.2709

            IN - OUT =          -7.1451              IN - OUT =       1.3111E-03

 PERCENT DISCREPANCY =          -0.00     PERCENT DISCREPANCY =           0.00


          TIME SUMMARY AT END OF TIME STEP     6 IN STRESS PERIOD      6
                    SECONDS     MINUTES      HOURS       DAYS        YEARS
                    -----------------------------------------------------------
   TIME STEP LENGTH 9.18681E+06 1.53113E+05  2551.9      106.33     0.29111    
 STRESS PERIOD TIME 3.15619E+07 5.26032E+05  8767.2      365.30      1.0001    
         TOTAL TIME 1.57896E+08 2.63160E+06  43860.      1827.5      5.0034    
 

                               VOLUMETRIC BUDGET FOR SYSTEMS OF DELAY INTERBEDS
                                          AT END OF TIME STEP  6 IN STRESS PERIOD  6

          |   C U M U L A T I V E   V O L U M E S   L**3           | R A T E S   F O R  T H I S  T I M E  S T E P   L**3/T  |
   SYSTEM |    CHANGE IN     BOUNDARY                    PERCENT   |    CHANGE IN     BOUNDARY                    PERCENT   |
   NUMBER |     STORAGE        FLOW           SUM      DISCREPANCY |     STORAGE        FLOW           SUM      DISCREPANCY |
  --------|--------------------------------------------------------|--------------------------------------------------------|
      1     23377.        -23377.       -0.36380E-11   -0.15563E-13     12.691        -12.691       -0.71054E-14   -0.55988E-13
      2    0.25402E+08   -0.25402E+08     0.0000         0.0000         16443.        -16443.       -0.72760E-11   -0.44249E-13
  --------|--------------------------------------------------------|--------------------------------------------------------|
 TOTALS:    0.25425E+08   -0.25425E+08     0.0000         0.0000         16456.        -16456.       -0.72760E-11   -0.44215E-13
1
                            STRESS PERIOD NO.      7, LENGTH =   365.3000    
                            -----------------------------------------------

                              NUMBER OF TIME STEPS =     6

                               MULTIPLIER FOR DELT =     1.300

                            INITIAL TIME STEP SIZE =   28.63744    

REUSING NON-PARAMETER WELLS FROM LAST STRESS PERIOD

14 WELLS
 
 SOLVING FOR HEAD 

    44 ITERATIONS FOR TIME STEP   1 IN STRESS PERIOD    7

 MAXIMUM HEAD CHANGE FOR EACH ITERATION:

    HEAD CHANGE   HEAD CHANGE   HEAD CHANGE   HEAD CHANGE   HEAD CHANGE
  LAYER,ROW,COL LAYER,ROW,COL LAYER,ROW,COL LAYER,ROW,COL LAYER,ROW,COL
 ----------------------------------------------------------------------
      3.106         3.731         2.297        -2.399        -3.152    
  (  3,  1, 10) (  3,  1, 10) (  3,  2,  1) (  3,  1, 10) (  3,  1,  1)
    -0.3297       -0.7611        -1.779       -0.3101        0.1604    
  (  3,  1, 10) (  3,  2, 10) (  3,  1, 10) (  3,  3,  7) (  3,  3,  9)
    -0.6953E-01   -0.1298E-01   -0.8670E-02   -0.5303E-02   -0.5373E-02
  (  2,  8,  1) (  3,  3,  6) (  3,  3,  6) (  3,  3,  7) (  3,  3,  6)
    -0.1930E-02   -0.2728E-02    0.1448E-02    0.1224E-02    0.2054E-02
  (  3,  3,  7) (  3,  3,  6) (  3,  7,  1) (  3,  1,  1) (  3,  1,  1)
     0.1912E-02    0.2109E-02    0.3870E-02    0.2484E-02    0.1862E-02
  (  3,  1, 10) (  3,  1,  1) (  3,  1,  9) (  3,  1, 10) (  3,  1, 10)
     0.1287E-02    0.1211E-02    0.8457E-03    0.5984E-03    0.4470E-03
  (  3,  1, 10) (  3,  2,  9) (  3,  1, 10) (  3,  1, 10) (  3,  1, 10)
     0.2926E-03    0.2943E-03    0.2012E-03    0.1447E-03    0.1082E-03
  (  3,  1, 10) (  3,  2,  9) (  3,  2,  9) (  3,  1, 10) (  3,  1, 10)
     0.7470E-04    0.7046E-04    0.4907E-04    0.3477E-04    0.2594E-04
  (  3,  1, 10) (  3,  2,  9) (  3,  1, 10) (  3,  1, 10) (  3,  1, 10)
     0.1700E-04    0.1713E-04    0.1173E-04    0.8258E-05
  (  3,  1, 10) (  3,  2,  9) (  3,  2,  9) (  3,  1, 10)


 OUTPUT CONTROL FOR STRESS PERIOD      7   TIME STEP     1
    SAVE HEAD FOR ALL LAYERS

 HEAD WILL BE SAVED ON UNIT   21 AT END OF TIME STEP     1 IN STRESS PERIOD      7
 
 SOLVING FOR HEAD 
    41 ITERATIONS FOR TIME STEP   2 IN STRESS PERIOD    7

 MAXIMUM HEAD CHANGE FOR EACH ITERATION:

    HEAD CHANGE   HEAD CHANGE   HEAD CHANGE   HEAD CHANGE   HEAD CHANGE
  LAYER,ROW,COL LAYER,ROW,COL LAYER,ROW,COL LAYER,ROW,COL LAYER,ROW,COL
 ----------------------------------------------------------------------
      2.506         3.176         2.256        -2.101        -3.262    
  (  3,  1, 10) (  3,  1, 10) (  3,  1,  1) (  3,  1, 10) (  3,  1,  1)
    -0.2518       -0.6024        -1.539        0.4860        0.4437E-01
  (  3,  1, 10) (  3,  2, 10) (  3,  1, 10) (  3, 10,  1) (  2, 10,  9)
    -0.6264E-01   -0.1377E-01   -0.8090E-02   -0.6861E-02    0.1905E-02
  (  2,  8,  1) (  3,  3,  7) (  3,  3,  6) (  3,  3,  7) (  3,  1,  1)
    -0.2647E-02    0.2077E-02    0.1682E-02    0.4283E-02    0.2162E-02
  (  3,  3,  7) (  3,  2, 10) (  3,  7,  4) (  3,  1, 10) (  3,  6,  1)
     0.3519E-02    0.3450E-02    0.2262E-02    0.1566E-02    0.1124E-02
  (  3,  1,  5) (  3,  2,  3) (  3,  1,  1) (  3,  1,  3) (  3,  1,  3)
     0.7359E-03    0.7576E-03    0.5247E-03    0.3515E-03    0.2658E-03
  (  3,  1, 10) (  3,  2,  2) (  3,  1,  4) (  3,  1,  3) (  3,  1,  3)
     0.1630E-03    0.1775E-03    0.1181E-03    0.8328E-04    0.5936E-04
  (  3,  1,  1) (  3,  2,  3) (  3,  1,  3) (  3,  1,  3) (  3,  1,  3)
     0.3922E-04    0.3962E-04    0.2791E-04    0.1859E-04    0.1419E-04
  (  3,  1, 10) (  3,  2,  2) (  3,  1,  4) (  3,  1,  3) (  3,  1,  3)
     0.8536E-05
  (  3,  1, 10)


 OUTPUT CONTROL FOR STRESS PERIOD      7   TIME STEP     2
    SAVE HEAD FOR ALL LAYERS

 HEAD WILL BE SAVED ON UNIT   21 AT END OF TIME STEP     2 IN STRESS PERIOD      7
 
 SOLVING FOR HEAD 
    39 ITERATIONS FOR TIME STEP   3 IN STRESS PERIOD    7

 MAXIMUM HEAD CHANGE FOR EACH ITERATION:

    HEAD CHANGE   HEAD CHANGE   HEAD CHANGE   HEAD CHANGE   HEAD CHANGE
  LAYER,ROW,COL LAYER,ROW,COL LAYER,ROW,COL LAYER,ROW,COL LAYER,ROW,COL
 ----------------------------------------------------------------------
      1.937         2.545         1.955        -1.840        -3.261    
  (  3,  1, 10) (  3,  1, 10) (  3,  1,  1) (  3,  1, 10) (  3,  1,  1)
     0.1943       -0.4045        -1.023        0.7215        0.8979E-01
  (  2,  4,  1) (  3,  2, 10) (  3,  1, 10) (  3,  1, 10) (  2,  6, 10)
    -0.4199E-01   -0.1735E-01   -0.1104E-01   -0.4651E-02   -0.4294E-02
  (  2, 10, 10) (  2,  1,  2) (  3,  3,  6) (  3,  3,  7) (  3,  3,  6)
     0.2399E-02    0.2381E-02    0.4040E-02    0.3475E-02    0.2468E-02
  (  3,  1,  1) (  3,  7,  1) (  3,  1,  3) (  3,  2, 10) (  3,  1, 10)
     0.1446E-02    0.1701E-02    0.1169E-02    0.7508E-03    0.5625E-03
  (  3,  1, 10) (  3,  1, 10) (  3,  2,  9) (  3,  1, 10) (  3,  2, 10)
     0.3381E-03    0.3728E-03    0.2521E-03    0.1725E-03    0.1176E-03
  (  3,  1, 10) (  3,  2,  9) (  3,  1, 10) (  3,  2, 10) (  3,  1, 10)
     0.7035E-04    0.8205E-04    0.5828E-04    0.3573E-04    0.2835E-04
  (  3,  2, 10) (  3,  1, 10) (  3,  2,  9) (  3,  1, 10) (  3,  2,  9)
     0.1612E-04    0.1823E-04    0.1177E-04    0.7426E-05
  (  3,  1, 10) (  3,  2,  9) (  3,  1, 10) (  3,  2, 10)


 OUTPUT CONTROL FOR STRESS PERIOD      7   TIME STEP     3
    SAVE HEAD FOR ALL LAYERS

 HEAD WILL BE SAVED ON UNIT   21 AT END OF TIME STEP     3 IN STRESS PERIOD      7
 
 SOLVING FOR HEAD 
    36 ITERATIONS FOR TIME STEP   4 IN STRESS PERIOD    7

 MAXIMUM HEAD CHANGE FOR EACH ITERATION:

    HEAD CHANGE   HEAD CHANGE   HEAD CHANGE   HEAD CHANGE   HEAD CHANGE
  LAYER,ROW,COL LAYER,ROW,COL LAYER,ROW,COL LAYER,ROW,COL LAYER,ROW,COL
 ----------------------------------------------------------------------
      1.420         1.895         1.507        -1.624        -3.102    
  (  3,  1, 10) (  3,  1, 10) (  3,  1,  1) (  3,  1, 10) (  3,  1,  1)
     0.5654        0.2603        0.3927E-01   -0.3029E-01   -0.2107E-01
  (  3, 10, 10) (  3,  9,  3) (  2,  1,  5) (  3,  3,  6) (  3,  3,  6)
     0.2199E-01   -0.1304E-01   -0.9818E-02   -0.2831E-02   -0.2290E-02
  (  2,  6,  1) (  3,  3,  6) (  3,  3,  7) (  3,  3,  6) (  3,  3,  7)
     0.3278E-02    0.3594E-02    0.2487E-02    0.1623E-02    0.1157E-02
  (  3,  1, 10) (  3,  1,  1) (  3,  1, 10) (  3,  1, 10) (  3,  1,  1)
     0.6623E-03    0.7619E-03    0.5144E-03    0.3393E-03    0.2572E-03
  (  3,  1, 10) (  3,  1, 10) (  3,  1, 10) (  3,  1,  1) (  3,  1, 10)
     0.1448E-03    0.1580E-03    0.1113E-03    0.7743E-04    0.5401E-04
  (  3,  1, 10) (  3,  1,  1) (  3,  1, 10) (  3,  1, 10) (  3,  1,  1)
     0.3205E-04    0.3389E-04    0.2495E-04    0.1577E-04    0.1238E-04
  (  3,  1, 10) (  3,  1, 10) (  3,  1, 10) (  3,  1, 10) (  3,  1, 10)
     0.5975E-05
  (  3,  1, 10)


 OUTPUT CONTROL FOR STRESS PERIOD      7   TIME STEP     4
    SAVE HEAD FOR ALL LAYERS

 HEAD WILL BE SAVED ON UNIT   21 AT END OF TIME STEP     4 IN STRESS PERIOD      7
 
 SOLVING FOR HEAD 
    35 ITERATIONS FOR TIME STEP   5 IN STRESS PERIOD    7

 MAXIMUM HEAD CHANGE FOR EACH ITERATION:

    HEAD CHANGE   HEAD CHANGE   HEAD CHANGE   HEAD CHANGE   HEAD CHANGE
  LAYER,ROW,COL LAYER,ROW,COL LAYER,ROW,COL LAYER,ROW,COL LAYER,ROW,COL
 ----------------------------------------------------------------------
     0.9654         1.279        0.9343        -1.573        -2.621    
  (  3,  1, 10) (  3,  1, 10) (  3,  1,  1) (  3,  1, 10) (  3,  1,  1)
     0.9371        0.5602        0.1681        0.8922E-01   -0.1022    
  (  3, 10,  1) (  3,  9,  3) (  2,  1,  8) (  2, 10,  1) (  3, 10,  1)
     0.9217E-01    0.1712E-01   -0.1156E-01   -0.7047E-02   -0.4665E-02
  (  2,  7,  1) (  2,  1,  2) (  3,  3,  6) (  3,  9,  1) (  3,  9,  4)
    -0.2112E-02   -0.3242E-02   -0.2427E-02   -0.1319E-02   -0.8973E-03
  (  3, 10,  1) (  3,  9,  3) (  3,  9,  3) (  3,  9,  5) (  3,  3,  6)
    -0.4296E-03   -0.5949E-03   -0.4698E-03   -0.2817E-03   -0.1929E-03
  (  3,  3,  6) (  3,  9,  2) (  3,  3,  6) (  3,  3,  6) (  3,  3,  6)
    -0.1002E-03   -0.1273E-03   -0.1016E-03   -0.6237E-04   -0.4447E-04
  (  3,  3,  6) (  3,  3,  6) (  3,  3,  6) (  3,  3,  6) (  3,  3,  6)
    -0.2461E-04   -0.2557E-04   -0.2137E-04   -0.1381E-04   -0.7537E-05
  (  3,  3,  6) (  3,  3,  6) (  3,  3,  6) (  3,  3,  6) (  3,  3,  6)


 OUTPUT CONTROL FOR STRESS PERIOD      7   TIME STEP     5
    SAVE HEAD FOR ALL LAYERS

 HEAD WILL BE SAVED ON UNIT   21 AT END OF TIME STEP     5 IN STRESS PERIOD      7
 
 SOLVING FOR HEAD 
    34 ITERATIONS FOR TIME STEP   6 IN STRESS PERIOD    7

 MAXIMUM HEAD CHANGE FOR EACH ITERATION:

    HEAD CHANGE   HEAD CHANGE   HEAD CHANGE   HEAD CHANGE   HEAD CHANGE
  LAYER,ROW,COL LAYER,ROW,COL LAYER,ROW,COL LAYER,ROW,COL LAYER,ROW,COL
 ----------------------------------------------------------------------
     0.5778        0.7218        0.3233        -1.568        0.5725    
  (  3,  1, 10) (  3,  1, 10) (  3,  2,  1) (  3,  1, 10) (  3, 10,  1)
     0.8592E-01   -0.5366E-01   -0.4504E-01   -0.2351E-01   -0.1157E-01
  (  2,  2,  1) (  3,  3,  7) (  3,  3,  7) (  3,  3,  7) (  3,  3,  7)
    -0.1228E-01   -0.6770E-02   -0.5717E-02   -0.3191E-02   -0.2094E-02
  (  2,  7,  1) (  3,  3,  7) (  3,  3,  6) (  3,  3,  7) (  3,  3,  6)
    -0.9587E-03   -0.1367E-02   -0.1152E-02   -0.6734E-03   -0.4474E-03
  (  3,  3,  6) (  3,  3,  6) (  3,  3,  6) (  3,  3,  6) (  3,  3,  6)
    -0.2315E-03   -0.2904E-03   -0.2487E-03   -0.1496E-03   -0.1062E-03
  (  3,  3,  6) (  3,  3,  6) (  3,  3,  6) (  3,  3,  6) (  3,  3,  6)
    -0.5631E-04   -0.6644E-04   -0.5724E-04   -0.3811E-04   -0.2475E-04
  (  3,  3,  6) (  3,  3,  6) (  3,  3,  6) (  3,  3,  6) (  3,  3,  6)
    -0.1465E-04   -0.1272E-04   -0.1028E-04   -0.5091E-05
  (  3,  3,  6) (  3,  3,  6) (  3,  3,  6) (  3,  3,  6)


 OUTPUT CONTROL FOR STRESS PERIOD      7   TIME STEP     6
    PRINT BUDGET
    PRINT HEAD FOR ALL LAYERS
    SAVE HEAD FOR ALL LAYERS
    SAVE DRAWDOWN FOR ALL LAYERS
1
              HEAD IN LAYER   1 AT END OF TIME STEP   6 IN STRESS PERIOD    7
  ---------------------------------------------------------------------------

           1       2       3       4       5       6       7       8       9      10
 ...................................................................................
   1    21.97   21.63   20.97   20.55   20.35   20.35   20.55   20.96   21.62   21.97
   2    20.94   20.44   20.02   19.72   19.57   19.57   19.72   20.01   20.43   20.93
   3    19.44   18.95   18.58   18.34   18.21   18.21   18.33   18.57   18.94   19.43
   4    17.39   16.96   16.67   16.48   16.38   16.38   16.47   16.66   16.95   17.38
   5    14.49   14.40   14.30   14.22   14.18   14.17   14.22   14.30   14.40   14.48
   6    11.89   11.87   11.83   11.79   11.77   11.77   11.79   11.82   11.86   11.89
   7     9.36    9.33    9.30    9.26    9.24    9.24    9.26    9.29    9.33    9.35
   8     6.87    6.81    6.72    6.62    6.56    6.56    6.62    6.71    6.81    6.87
   9     4.56    4.39    4.09    3.75    3.61    3.61    3.75    4.09    4.39    4.56
  10     2.89    2.47    1.56    0.00    0.00    0.00    0.00    1.56    2.47    2.89
1
              HEAD IN LAYER   2 AT END OF TIME STEP   6 IN STRESS PERIOD    7
  ---------------------------------------------------------------------------

           1       2       3       4       5       6       7       8       9      10
 ...................................................................................
   1     1.93    1.95    1.97    1.97    1.96    1.95    1.93    1.90    1.86    1.81
   2     1.75    3.29    3.10    2.64    2.17    1.82    1.86    2.19    2.45    1.58
   3     1.51    2.60    2.21    1.43    0.30   -1.25   -0.84    0.48    1.34    1.30
   4     1.23    2.02    1.71    1.14    0.41   -0.42   -0.26    0.45    1.00    1.01
   5     0.91    1.44    1.32    1.06    0.79    0.58    0.57    0.70    0.83    0.70
   6     0.57    0.84    0.79    0.69    0.58    0.50    0.48    0.49    0.51    0.39
   7     0.22    0.13    0.07    0.01   -0.04   -0.07   -0.09   -0.08   -0.04    0.08
   8    -0.13   -0.70   -0.84   -0.91   -0.96   -0.97   -0.96   -0.91   -0.79   -0.24
   9    -0.46   -1.56   -1.85   -2.02   -2.10   -2.11   -2.05   -1.89   -1.61   -0.53
  10    -0.75   -0.82   -0.87   -0.91   -0.94   -0.94   -0.93   -0.89   -0.85   -0.79
1
              HEAD IN LAYER   3 AT END OF TIME STEP   6 IN STRESS PERIOD    7
  ---------------------------------------------------------------------------

           1       2       3       4       5       6       7       8       9      10
 ...................................................................................
   1   -12.84  -12.99  -13.28  -13.65  -14.05  -14.37  -14.50  -14.48  -14.39  -14.33
   2   -13.02  -13.26  -13.74  -14.43  -15.25  -15.98  -16.03  -15.62  -15.20  -14.97
   3   -13.05  -13.41  -14.20  -15.55  -17.72  -21.28  -20.40  -17.70  -16.23  -15.59
   4   -12.38  -12.68  -13.29  -14.27  -15.65  -17.48  -17.18  -15.83  -14.96  -14.53
   5   -11.24  -11.41  -11.72  -12.16  -12.66  -13.08  -13.15  -12.95  -12.73  -12.60
   6   -10.07  -10.15  -10.29  -10.47  -10.66  -10.82  -10.89  -10.89  -10.85  -10.83
   7    -9.10   -9.13   -9.19   -9.27   -9.36   -9.43   -9.47   -9.49   -9.50   -9.50
   8    -8.39   -8.41   -8.44   -8.48   -8.51   -8.55   -8.58   -8.59   -8.60   -8.61
   9    -7.95   -7.96   -7.97   -7.99   -8.01   -8.03   -8.05   -8.06   -8.06   -8.06
  10    -7.73   -7.73   -7.74   -7.76   -7.77   -7.78   -7.79   -7.80   -7.81   -7.81

 HEAD WILL BE SAVED ON UNIT   21 AT END OF TIME STEP     6 IN STRESS PERIOD      7

 DRAWDOWN WILL BE SAVED ON UNIT   22 AT END OF TIME STEP     6 IN STRESS PERIOD      7



  -------------------------------------------------------------------------------------
  VOLUMETRIC BUDGET FOR ENTIRE MODEL AT END OF TIME STEP    6 IN STRESS PERIOD      7
  -------------------------------------------------------------------------------------

     CUMULATIVE VOLUMES      L**3       RATES FOR THIS TIME STEP      L**3/T
     ------------------                 ------------------------

           IN:                                      IN:
           ---                                      ---
             STORAGE =    12026671.1498               STORAGE =        4848.4180
       CONSTANT HEAD =       14938.6299         CONSTANT HEAD =          22.2822
               WELLS =    65784000.0000                 WELLS =       30000.0000
    INST. IB STORAGE =    19068830.3017      INST. IB STORAGE =        6081.2954
    DELAY IB STORAGE =    31480908.9824      DELAY IB STORAGE =       16634.8917

            TOTAL IN =   128375349.0638              TOTAL IN =       57586.8873

          OUT:                                     OUT:
          ----                                     ----
             STORAGE =           0.0000               STORAGE =           0.0000
       CONSTANT HEAD =    62621352.2043         CONSTANT HEAD =       27586.8865
               WELLS =    65754000.0000                 WELLS =       30000.0000
    INST. IB STORAGE =       3.4133E-08      INST. IB STORAGE =       1.5127E-11
    DELAY IB STORAGE =       1.4237E-11      DELAY IB STORAGE =           0.0000

           TOTAL OUT =   128375352.2043             TOTAL OUT =       57586.8865

            IN - OUT =          -3.1405              IN - OUT =       8.2065E-04

 PERCENT DISCREPANCY =          -0.00     PERCENT DISCREPANCY =           0.00


          TIME SUMMARY AT END OF TIME STEP     6 IN STRESS PERIOD      7
                    SECONDS     MINUTES      HOURS       DAYS        YEARS
                    -----------------------------------------------------------
   TIME STEP LENGTH 9.18681E+06 1.53113E+05  2551.9      106.33     0.29111    
 STRESS PERIOD TIME 3.15619E+07 5.26032E+05  8767.2      365.30      1.0001    
         TOTAL TIME 1.89458E+08 3.15763E+06  52627.      2192.8      6.0036    
 

                               VOLUMETRIC BUDGET FOR SYSTEMS OF DELAY INTERBEDS
                                          AT END OF TIME STEP  6 IN STRESS PERIOD  7

          |   C U M U L A T I V E   V O L U M E S   L**3           | R A T E S   F O R  T H I S  T I M E  S T E P   L**3/T  |
   SYSTEM |    CHANGE IN     BOUNDARY                    PERCENT   |    CHANGE IN     BOUNDARY                    PERCENT   |
   NUMBER |     STORAGE        FLOW           SUM      DISCREPANCY |     STORAGE        FLOW           SUM      DISCREPANCY |
  --------|--------------------------------------------------------|--------------------------------------------------------|
      1     28113.        -28113.       -0.36380E-11   -0.12941E-13     12.064        -12.064       -0.35527E-14   -0.29449E-13
      2    0.31453E+08   -0.31453E+08    0.74506E-08    0.23688E-13     16623.        -16623.        0.72760E-11    0.43771E-13
  --------|--------------------------------------------------------|--------------------------------------------------------|
 TOTALS:    0.31481E+08   -0.31481E+08    0.74506E-08    0.23667E-13     16635.        -16635.        0.72760E-11    0.43739E-13
1
                            STRESS PERIOD NO.      8, LENGTH =   365.3000    
                            -----------------------------------------------

                              NUMBER OF TIME STEPS =     6

                               MULTIPLIER FOR DELT =     1.300

                            INITIAL TIME STEP SIZE =   28.63744    

REUSING NON-PARAMETER WELLS FROM LAST STRESS PERIOD

14 WELLS
 
 SOLVING FOR HEAD 

    44 ITERATIONS FOR TIME STEP   1 IN STRESS PERIOD    8

 MAXIMUM HEAD CHANGE FOR EACH ITERATION:

    HEAD CHANGE   HEAD CHANGE   HEAD CHANGE   HEAD CHANGE   HEAD CHANGE
  LAYER,ROW,COL LAYER,ROW,COL LAYER,ROW,COL LAYER,ROW,COL LAYER,ROW,COL
 ----------------------------------------------------------------------
      3.160         3.736         2.385        -2.361        -3.199    
  (  3,  1, 10) (  3,  2,  8) (  3,  2,  1) (  3,  1, 10) (  3,  1,  1)
    -0.3271       -0.7672        -1.789       -0.9771        0.8357    
  (  3,  1, 10) (  3,  2, 10) (  3,  1, 10) (  3,  1,  1) (  3,  1,  1)
    -0.7297E-01   -0.1160E-01   -0.7600E-02   -0.6321E-02   -0.4681E-02
  (  2,  8,  1) (  3,  3,  7) (  3,  3,  6) (  3,  3,  7) (  3,  3,  6)
    -0.2964E-02   -0.2166E-02   -0.1657E-02    0.1475E-02    0.1170E-02
  (  3,  3,  7) (  3,  3,  6) (  3,  3,  6) (  3,  4,  3) (  3, 10,  5)
     0.2795E-02    0.1806E-02    0.3335E-02    0.2137E-02    0.1691E-02
  (  3,  1, 10) (  3,  2,  9) (  3,  1,  1) (  3,  1,  7) (  3,  2,  9)
     0.1099E-02    0.1119E-02    0.7793E-03    0.5544E-03    0.4117E-03
  (  3,  1, 10) (  3,  2,  9) (  3,  2,  9) (  3,  2,  9) (  3,  2,  9)
     0.2601E-03    0.2753E-03    0.1903E-03    0.1351E-03    0.1016E-03
  (  3,  2,  9) (  3,  2,  9) (  3,  2,  9) (  3,  2,  9) (  3,  2,  9)
     0.6435E-04    0.6671E-04    0.4670E-04    0.3341E-04    0.2484E-04
  (  3,  2,  9) (  3,  2,  9) (  3,  2,  9) (  3,  2,  9) (  3,  2,  9)
     0.1593E-04    0.1646E-04    0.1150E-04    0.5559E-05
  (  3,  2,  9) (  3,  2,  9) (  3,  2,  9) (  3,  2,  9)


 OUTPUT CONTROL FOR STRESS PERIOD      8   TIME STEP     1
    SAVE HEAD FOR ALL LAYERS

 HEAD WILL BE SAVED ON UNIT   21 AT END OF TIME STEP     1 IN STRESS PERIOD      8
 
 SOLVING FOR HEAD 
    43 ITERATIONS FOR TIME STEP   2 IN STRESS PERIOD    8

 MAXIMUM HEAD CHANGE FOR EACH ITERATION:

    HEAD CHANGE   HEAD CHANGE   HEAD CHANGE   HEAD CHANGE   HEAD CHANGE
  LAYER,ROW,COL LAYER,ROW,COL LAYER,ROW,COL LAYER,ROW,COL LAYER,ROW,COL
 ----------------------------------------------------------------------
      2.552         3.183         2.355        -1.983        -3.342    
  (  3,  1, 10) (  3,  1, 10) (  3,  1,  1) (  3,  1, 10) (  3,  1,  1)
    -0.2611       -0.6167        -1.573        0.4346        0.3964E-01
  (  3,  1, 10) (  3,  1,  1) (  3,  1, 10) (  3, 10,  1) (  2, 10,  1)
    -0.6821E-01   -0.1040E-01   -0.7382E-02   -0.5569E-02   -0.2697E-02
  (  2,  8,  1) (  3,  3,  6) (  3,  3,  7) (  3,  3,  6) (  3,  3,  7)
    -0.2163E-02    0.2002E-02    0.1450E-02    0.2623E-02    0.2054E-02
  (  3,  3,  6) (  3,  6,  1) (  3,  9,  1) (  3,  1,  1) (  3,  1,  6)
     0.2485E-02    0.3684E-02    0.2839E-02    0.1932E-02    0.1440E-02
  (  3,  1,  1) (  3,  1, 10) (  3,  2,  9) (  3,  1, 10) (  3,  2,  9)
     0.9303E-03    0.9668E-03    0.6560E-03    0.4526E-03    0.3245E-03
  (  3,  1, 10) (  3,  2,  8) (  3,  2,  9) (  3,  2,  9) (  3,  1,  7)
     0.2007E-03    0.2235E-03    0.1532E-03    0.1019E-03    0.7697E-04
  (  3,  1,  7) (  3,  2,  9) (  3,  2,  8) (  3,  1,  7) (  3,  2,  9)
     0.4852E-04    0.5145E-04    0.3470E-04    0.2426E-04    0.1716E-04
  (  3,  1, 10) (  3,  2,  9) (  3,  2,  9) (  3,  2,  9) (  3,  1,  7)
     0.1075E-04    0.1020E-04    0.2841E-05
  (  3,  1,  7) (  3,  1, 10) (  3,  1, 10)


 OUTPUT CONTROL FOR STRESS PERIOD      8   TIME STEP     2
    SAVE HEAD FOR ALL LAYERS

 HEAD WILL BE SAVED ON UNIT   21 AT END OF TIME STEP     2 IN STRESS PERIOD      8
 
 SOLVING FOR HEAD 
    39 ITERATIONS FOR TIME STEP   3 IN STRESS PERIOD    8

 MAXIMUM HEAD CHANGE FOR EACH ITERATION:

    HEAD CHANGE   HEAD CHANGE   HEAD CHANGE   HEAD CHANGE   HEAD CHANGE
  LAYER,ROW,COL LAYER,ROW,COL LAYER,ROW,COL LAYER,ROW,COL LAYER,ROW,COL
 ----------------------------------------------------------------------
      1.975         2.557         2.057        -1.727        -3.335    
  (  3,  1, 10) (  3,  1, 10) (  3,  1,  1) (  3,  1, 10) (  3,  1,  1)
     0.1981       -0.4233        -1.124        0.6653        0.9669E-01
  (  2,  4,  1) (  3,  2, 10) (  3,  1, 10) (  3,  1, 10) (  2, 10, 10)
    -0.5275E-01   -0.1537E-01   -0.7140E-02   -0.6140E-02    0.1964E-02
  (  2, 10, 10) (  2,  1,  2) (  3,  3,  6) (  3,  3,  6) (  3,  1,  1)
    -0.2036E-02    0.2784E-02    0.2489E-02    0.4248E-02    0.2757E-02
  (  3,  3,  6) (  3,  1, 10) (  3,  7, 10) (  3,  1, 10) (  3,  1,  5)
     0.1564E-02    0.1875E-02    0.1244E-02    0.8354E-03    0.5820E-03
  (  3,  1,  1) (  3,  2,  4) (  3,  1,  1) (  3,  1,  5) (  3,  1,  5)
     0.3476E-03    0.3912E-03    0.2842E-03    0.1765E-03    0.1321E-03
  (  3,  1,  5) (  3,  2,  3) (  3,  2,  4) (  3,  2, 10) (  3,  1,  5)
     0.7298E-04    0.8989E-04    0.5937E-04    0.4050E-04    0.2837E-04
  (  3,  1,  5) (  3,  2,  4) (  3,  2,  8) (  3,  2,  4) (  3,  2, 10)
     0.1712E-04    0.1823E-04    0.1380E-04    0.8434E-05
  (  3,  1,  5) (  3,  2,  9) (  3,  2,  4) (  3,  2, 10)


 OUTPUT CONTROL FOR STRESS PERIOD      8   TIME STEP     3
    SAVE HEAD FOR ALL LAYERS

 HEAD WILL BE SAVED ON UNIT   21 AT END OF TIME STEP     3 IN STRESS PERIOD      8
 
 SOLVING FOR HEAD 
    36 ITERATIONS FOR TIME STEP   4 IN STRESS PERIOD    8

 MAXIMUM HEAD CHANGE FOR EACH ITERATION:

    HEAD CHANGE   HEAD CHANGE   HEAD CHANGE   HEAD CHANGE   HEAD CHANGE
  LAYER,ROW,COL LAYER,ROW,COL LAYER,ROW,COL LAYER,ROW,COL LAYER,ROW,COL
 ----------------------------------------------------------------------
      1.452         1.912         1.588        -1.512        -3.181    
  (  3,  1, 10) (  3,  1, 10) (  3,  1,  1) (  3,  1, 10) (  3,  1,  1)
     0.4877        0.2181        0.2792E-01   -0.2739E-01   -0.1940E-01
  (  3, 10, 10) (  3,  9,  6) (  3,  9,  4) (  3,  3,  6) (  3,  3,  7)
     0.1299E-01   -0.1200E-01   -0.8614E-02   -0.3198E-02   -0.1624E-02
  (  2,  6,  1) (  3,  3,  7) (  3,  3,  6) (  3,  3,  7) (  3,  3,  6)
     0.3334E-02    0.4120E-02    0.3211E-02    0.2070E-02    0.1447E-02
  (  3,  1,  1) (  3,  1,  1) (  3,  1, 10) (  3,  1, 10) (  3,  1, 10)
     0.8211E-03    0.9934E-03    0.6572E-03    0.4300E-03    0.3175E-03
  (  3,  1, 10) (  3,  1, 10) (  3,  1,  9) (  3,  1, 10) (  3,  1, 10)
     0.1846E-03    0.1910E-03    0.1439E-03    0.9405E-04    0.6423E-04
  (  3,  1, 10) (  3,  1,  9) (  3,  1, 10) (  3,  1, 10) (  3,  1, 10)
     0.3825E-04    0.4479E-04    0.2970E-04    0.1955E-04    0.1472E-04
  (  3,  1, 10) (  3,  1, 10) (  3,  1, 10) (  3,  1, 10) (  3,  1, 10)
     0.8502E-05
  (  3,  1, 10)


 OUTPUT CONTROL FOR STRESS PERIOD      8   TIME STEP     4
    SAVE HEAD FOR ALL LAYERS

 HEAD WILL BE SAVED ON UNIT   21 AT END OF TIME STEP     4 IN STRESS PERIOD      8
 
 SOLVING FOR HEAD 
    34 ITERATIONS FOR TIME STEP   5 IN STRESS PERIOD    8

 MAXIMUM HEAD CHANGE FOR EACH ITERATION:

    HEAD CHANGE   HEAD CHANGE   HEAD CHANGE   HEAD CHANGE   HEAD CHANGE
  LAYER,ROW,COL LAYER,ROW,COL LAYER,ROW,COL LAYER,ROW,COL LAYER,ROW,COL
 ----------------------------------------------------------------------
     0.9922         1.298         1.021        -1.468        -2.740    
  (  3,  1, 10) (  3,  1, 10) (  3,  1,  1) (  3,  1, 10) (  3,  1,  1)
     0.8935        0.5372        0.1554        0.6984E-01   -0.4202E-01
  (  3, 10,  1) (  3,  9,  3) (  2,  1,  7) (  2, 10,  1) (  2, 10, 10)
     0.8729E-01   -0.1504E-01   -0.1029E-01   -0.5479E-02   -0.3723E-02
  (  2,  6,  1) (  3,  3,  7) (  3,  9,  5) (  3,  9,  4) (  3, 10,  9)
    -0.3139E-02   -0.2552E-02   -0.1912E-02   -0.1052E-02   -0.6763E-03
  (  2,  6,  1) (  3,  9,  4) (  3,  9,  3) (  3, 10,  9) (  3,  9,  4)
    -0.3609E-03   -0.4700E-03   -0.3622E-03   -0.2011E-03   -0.1392E-03
  (  3, 10, 10) (  3,  9,  3) (  3,  9,  5) (  3,  4,  6) (  3,  3,  6)
    -0.7003E-04   -0.9151E-04   -0.7349E-04   -0.4539E-04   -0.3056E-04
  (  3,  3,  6) (  3,  3,  6) (  3,  3,  6) (  3,  3,  6) (  3,  3,  6)
    -0.1717E-04   -0.1818E-04   -0.1407E-04   -0.8361E-05
  (  3,  3,  6) (  3,  3,  6) (  3,  3,  6) (  3,  3,  6)


 OUTPUT CONTROL FOR STRESS PERIOD      8   TIME STEP     5
    SAVE HEAD FOR ALL LAYERS

 HEAD WILL BE SAVED ON UNIT   21 AT END OF TIME STEP     5 IN STRESS PERIOD      8
 
 SOLVING FOR HEAD 
    34 ITERATIONS FOR TIME STEP   6 IN STRESS PERIOD    8

 MAXIMUM HEAD CHANGE FOR EACH ITERATION:

    HEAD CHANGE   HEAD CHANGE   HEAD CHANGE   HEAD CHANGE   HEAD CHANGE
  LAYER,ROW,COL LAYER,ROW,COL LAYER,ROW,COL LAYER,ROW,COL LAYER,ROW,COL
 ----------------------------------------------------------------------
     0.6005        0.7446        0.4016        -1.477       -0.7708    
  (  3,  1, 10) (  3,  1, 10) (  3,  2,  1) (  3,  1, 10) (  3,  1,  1)
     0.3792        0.1762        0.4007E-01   -0.2397E-01   -0.1755E-01
  (  3,  1, 10) (  3,  2,  3) (  2,  1, 10) (  3,  3,  6) (  2,  1, 10)
     0.1266E-01   -0.1034E-01   -0.8686E-02   -0.4595E-02   -0.2979E-02
  (  2,  6,  1) (  3,  3,  7) (  3,  3,  6) (  3,  3,  6) (  3,  3,  6)
    -0.2201E-02   -0.1962E-02   -0.1636E-02   -0.9121E-03   -0.5864E-03
  (  2,  6,  1) (  3,  3,  6) (  3,  3,  6) (  3,  3,  6) (  3,  3,  6)
    -0.3276E-03   -0.3884E-03   -0.3294E-03   -0.1844E-03   -0.1282E-03
  (  2,  7,  1) (  3,  3,  6) (  3,  3,  6) (  3,  3,  6) (  3,  3,  6)
    -0.6067E-04   -0.8155E-04   -0.6825E-04   -0.4251E-04   -0.2773E-04
  (  3,  3,  6) (  3,  3,  6) (  3,  3,  6) (  3,  3,  6) (  3,  3,  6)
    -0.1528E-04   -0.1445E-04   -0.1106E-04   -0.4565E-05
  (  3,  3,  6) (  3,  3,  6) (  3,  3,  6) (  3,  3,  6)


 OUTPUT CONTROL FOR STRESS PERIOD      8   TIME STEP     6
    PRINT BUDGET
    PRINT HEAD FOR ALL LAYERS
    SAVE HEAD FOR ALL LAYERS
    SAVE DRAWDOWN FOR ALL LAYERS
1
              HEAD IN LAYER   1 AT END OF TIME STEP   6 IN STRESS PERIOD    8
  ---------------------------------------------------------------------------

           1       2       3       4       5       6       7       8       9      10
 ...................................................................................
   1    21.85   21.51   20.84   20.43   20.22   20.22   20.42   20.84   21.50   21.85
   2    20.82   20.32   19.90   19.60   19.45   19.45   19.60   19.89   20.31   20.81
   3    19.32   18.83   18.47   18.22   18.10   18.09   18.21   18.46   18.82   19.31
   4    17.28   16.85   16.55   16.36   16.27   16.27   16.36   16.55   16.84   17.27
   5    14.39   14.30   14.20   14.12   14.07   14.07   14.11   14.19   14.29   14.38
   6    11.80   11.77   11.73   11.70   11.68   11.68   11.70   11.73   11.77   11.80
   7     9.28    9.26    9.22    9.18    9.16    9.16    9.18    9.22    9.25    9.28
   8     6.81    6.75    6.66    6.56    6.51    6.51    6.56    6.65    6.75    6.80
   9     4.52    4.35    4.05    3.72    3.58    3.58    3.72    4.05    4.35    4.52
  10     2.86    2.45    1.55    0.00    0.00    0.00    0.00    1.55    2.45    2.86
1
              HEAD IN LAYER   2 AT END OF TIME STEP   6 IN STRESS PERIOD    8
  ---------------------------------------------------------------------------

           1       2       3       4       5       6       7       8       9      10
 ...................................................................................
   1     1.53    1.56    1.57    1.57    1.56    1.55    1.52    1.50    1.46    1.42
   2     1.36    2.84    2.64    2.17    1.70    1.34    1.38    1.71    1.98    1.19
   3     1.14    2.17    1.76    0.98   -0.16   -1.71   -1.31    0.02    0.88    0.92
   4     0.87    1.62    1.30    0.72   -0.02   -0.85   -0.69    0.02    0.58    0.64
   5     0.57    1.07    0.95    0.69    0.41    0.20    0.19    0.32    0.46    0.36
   6     0.24    0.52    0.47    0.37    0.26    0.18    0.15    0.17    0.18    0.06
   7    -0.09   -0.14   -0.20   -0.26   -0.31   -0.35   -0.36   -0.35   -0.33   -0.24
   8    -0.42   -0.93   -1.06   -1.13   -1.18   -1.20   -1.19   -1.14   -1.03   -0.53
   9    -0.74   -1.76   -2.04   -2.22   -2.30   -2.31   -2.25   -2.09   -1.82   -0.81
  10    -1.02   -1.08   -1.14   -1.18   -1.20   -1.20   -1.19   -1.16   -1.12   -1.06
1
              HEAD IN LAYER   3 AT END OF TIME STEP   6 IN STRESS PERIOD    8
  ---------------------------------------------------------------------------

           1       2       3       4       5       6       7       8       9      10
 ...................................................................................
   1   -13.65  -13.80  -14.10  -14.48  -14.89  -15.21  -15.35  -15.33  -15.24  -15.18
   2   -13.82  -14.06  -14.55  -15.24  -16.07  -16.82  -16.87  -16.46  -16.05  -15.81
   3   -13.81  -14.18  -14.98  -16.33  -18.52  -22.09  -21.22  -18.51  -17.04  -16.39
   4   -13.09  -13.39  -14.01  -14.99  -16.38  -18.22  -17.93  -16.58  -15.70  -15.27
   5   -11.87  -12.03  -12.35  -12.80  -13.30  -13.73  -13.80  -13.61  -13.39  -13.26
   6   -10.61  -10.69  -10.83  -11.02  -11.21  -11.37  -11.45  -11.45  -11.42  -11.39
   7    -9.56   -9.59   -9.66   -9.74   -9.82   -9.90   -9.94   -9.97   -9.98   -9.98
   8    -8.79   -8.80   -8.83   -8.87   -8.91   -8.95   -8.98   -8.99   -9.01   -9.01
   9    -8.29   -8.30   -8.32   -8.34   -8.36   -8.38   -8.39   -8.41   -8.41   -8.42
  10    -8.05   -8.05   -8.06   -8.08   -8.09   -8.10   -8.11   -8.12   -8.13   -8.13

 HEAD WILL BE SAVED ON UNIT   21 AT END OF TIME STEP     6 IN STRESS PERIOD      8

 DRAWDOWN WILL BE SAVED ON UNIT   22 AT END OF TIME STEP     6 IN STRESS PERIOD      8



  -------------------------------------------------------------------------------------
  VOLUMETRIC BUDGET FOR ENTIRE MODEL AT END OF TIME STEP    6 IN STRESS PERIOD      8
  -------------------------------------------------------------------------------------

     CUMULATIVE VOLUMES      L**3       RATES FOR THIS TIME STEP      L**3/T
     ------------------                 ------------------------

           IN:                                      IN:
           ---                                      ---
             STORAGE =    13770331.9382               STORAGE =        4725.0944
       CONSTANT HEAD =       24455.9084         CONSTANT HEAD =          28.5688
               WELLS =    76743000.0000                 WELLS =       30000.0000
    INST. IB STORAGE =    21240195.5511      INST. IB STORAGE =        5867.8262
    DELAY IB STORAGE =    37575212.8678      DELAY IB STORAGE =       16698.9629

            TOTAL IN =   149353196.2655              TOTAL IN =       57320.4522

          OUT:                                     OUT:
          ----                                     ----
             STORAGE =           0.0000               STORAGE =           0.0000
       CONSTANT HEAD =    72640196.9466         CONSTANT HEAD =       27320.4513
               WELLS =    76713000.0000                 WELLS =       30000.0000
    INST. IB STORAGE =       4.2447E-08      INST. IB STORAGE =       1.4712E-11
    DELAY IB STORAGE =       1.7530E-11      DELAY IB STORAGE =           0.0000

           TOTAL OUT =   149353196.9466             TOTAL OUT =       57320.4513

            IN - OUT =          -0.6811              IN - OUT =       9.1561E-04

 PERCENT DISCREPANCY =          -0.00     PERCENT DISCREPANCY =           0.00


          TIME SUMMARY AT END OF TIME STEP     6 IN STRESS PERIOD      8
                    SECONDS     MINUTES      HOURS       DAYS        YEARS
                    -----------------------------------------------------------
   TIME STEP LENGTH 9.18681E+06 1.53113E+05  2551.9      106.33     0.29111    
 STRESS PERIOD TIME 3.15619E+07 5.26032E+05  8767.2      365.30      1.0001    
         TOTAL TIME 2.21020E+08 3.68366E+06  61394.      2558.1      7.0037    
 

                               VOLUMETRIC BUDGET FOR SYSTEMS OF DELAY INTERBEDS
                                          AT END OF TIME STEP  6 IN STRESS PERIOD  8

          |   C U M U L A T I V E   V O L U M E S   L**3           | R A T E S   F O R  T H I S  T I M E  S T E P   L**3/T  |
   SYSTEM |    CHANGE IN     BOUNDARY                    PERCENT   |    CHANGE IN     BOUNDARY                    PERCENT   |
   NUMBER |     STORAGE        FLOW           SUM      DISCREPANCY |     STORAGE        FLOW           SUM      DISCREPANCY |
  --------|--------------------------------------------------------|--------------------------------------------------------|
      1     32748.        -32748.       -0.36380E-11   -0.11109E-13     11.961        -11.961       -0.35527E-14   -0.29703E-13
      2    0.37542E+08   -0.37542E+08    0.74506E-08    0.19846E-13     16687.        -16687.       -0.36380E-11   -0.21801E-13
  --------|--------------------------------------------------------|--------------------------------------------------------|
 TOTALS:    0.37575E+08   -0.37575E+08    0.74506E-08    0.19828E-13     16699.        -16699.       -0.36380E-11   -0.21786E-13
1
                            STRESS PERIOD NO.      9, LENGTH =   365.3000    
                            -----------------------------------------------

                              NUMBER OF TIME STEPS =     6

                               MULTIPLIER FOR DELT =     1.300

                            INITIAL TIME STEP SIZE =   28.63744    

REUSING NON-PARAMETER WELLS FROM LAST STRESS PERIOD

14 WELLS
 
 SOLVING FOR HEAD 

    44 ITERATIONS FOR TIME STEP   1 IN STRESS PERIOD    9

 MAXIMUM HEAD CHANGE FOR EACH ITERATION:

    HEAD CHANGE   HEAD CHANGE   HEAD CHANGE   HEAD CHANGE   HEAD CHANGE
  LAYER,ROW,COL LAYER,ROW,COL LAYER,ROW,COL LAYER,ROW,COL LAYER,ROW,COL
 ----------------------------------------------------------------------
      3.146         3.683         2.411        -2.270        -3.206    
  (  3,  1, 10) (  3,  2,  8) (  3,  2,  1) (  3,  1, 10) (  3,  1,  1)
    -0.3251       -0.7630        -1.775        -1.062        0.8530    
  (  3,  1, 10) (  3,  1,  1) (  3,  1, 10) (  3,  1,  1) (  3,  1,  1)
    -0.7167E-01   -0.1206E-01   -0.6642E-02   -0.6646E-02   -0.2108E-02
  (  2,  8,  1) (  3,  3,  6) (  3,  3,  6) (  3,  3,  6) (  3,  3,  7)
    -0.3222E-02    0.1170E-02   -0.1666E-02    0.2433E-02    0.6581E-03
  (  3,  3,  7) (  3,  1,  1) (  3,  3,  6) (  3,  1,  1) (  3, 10,  1)
     0.2287E-02    0.1371E-02    0.1937E-02    0.2285E-02    0.1716E-02
  (  3,  1,  1) (  3,  1, 10) (  3,  1,  1) (  3,  1, 10) (  3,  1, 10)
     0.1203E-02    0.1059E-02    0.7864E-03    0.5531E-03    0.4192E-03
  (  3,  1, 10) (  3,  1,  9) (  3,  1, 10) (  3,  1, 10) (  3,  1, 10)
     0.2749E-03    0.2712E-03    0.1839E-03    0.1363E-03    0.1006E-03
  (  3,  1, 10) (  3,  1, 10) (  3,  1,  9) (  3,  1, 10) (  3,  1, 10)
     0.7095E-04    0.6249E-04    0.4628E-04    0.3252E-04    0.2479E-04
  (  3,  1, 10) (  3,  4,  9) (  3,  1,  9) (  3,  1, 10) (  3,  1,  9)
     0.1625E-04    0.1591E-04    0.1087E-04    0.6422E-05
  (  3,  1, 10) (  3,  1, 10) (  3,  1,  9) (  3,  1, 10)


 OUTPUT CONTROL FOR STRESS PERIOD      9   TIME STEP     1
    SAVE HEAD FOR ALL LAYERS

 HEAD WILL BE SAVED ON UNIT   21 AT END OF TIME STEP     1 IN STRESS PERIOD      9
 
 SOLVING FOR HEAD 
    42 ITERATIONS FOR TIME STEP   2 IN STRESS PERIOD    9

 MAXIMUM HEAD CHANGE FOR EACH ITERATION:

    HEAD CHANGE   HEAD CHANGE   HEAD CHANGE   HEAD CHANGE   HEAD CHANGE
  LAYER,ROW,COL LAYER,ROW,COL LAYER,ROW,COL LAYER,ROW,COL LAYER,ROW,COL
 ----------------------------------------------------------------------
      2.542         3.134         2.374        -1.877        -3.363    
  (  3,  1, 10) (  3,  1, 10) (  3,  2,  1) (  3,  1, 10) (  3,  1,  1)
    -0.2595       -0.6167        -1.567        0.3960        0.3776E-01
  (  3,  1, 10) (  3,  1,  1) (  3,  1, 10) (  3, 10,  1) (  2, 10,  1)
    -0.6969E-01   -0.8785E-02   -0.7507E-02   -0.2499E-02   -0.3537E-02
  (  2,  8,  1) (  3,  3,  6) (  3,  3,  7) (  3,  3,  7) (  3,  3,  7)
     0.2369E-02    0.1477E-02    0.1995E-02    0.1954E-02    0.3154E-02
  (  3,  1,  2) (  3,  8,  5) (  3,  1,  1) (  3,  7,  1) (  3,  2, 10)
     0.1711E-02    0.4010E-02    0.2790E-02    0.1943E-02    0.1392E-02
  (  3,  6,  1) (  3,  1, 10) (  3,  1,  1) (  3,  1,  9) (  3,  1,  9)
     0.9380E-03    0.9496E-03    0.6524E-03    0.4344E-03    0.3275E-03
  (  3,  1, 10) (  3,  2,  2) (  3,  1,  9) (  3,  1,  1) (  3,  1,  9)
     0.2041E-03    0.2198E-03    0.1476E-03    0.1029E-03    0.7301E-04
  (  3,  1,  1) (  3,  2,  2) (  3,  1,  1) (  3,  1,  9) (  3,  1, 10)
     0.4980E-04    0.4963E-04    0.3454E-04    0.2271E-04    0.1743E-04
  (  3,  1, 10) (  3,  2,  2) (  3,  1,  9) (  3,  1,  1) (  3,  1,  9)
     0.1068E-04    0.9097E-05
  (  3,  1,  1) (  3,  1, 10)


 OUTPUT CONTROL FOR STRESS PERIOD      9   TIME STEP     2
    SAVE HEAD FOR ALL LAYERS

 HEAD WILL BE SAVED ON UNIT   21 AT END OF TIME STEP     2 IN STRESS PERIOD      9
 
 SOLVING FOR HEAD 
    40 ITERATIONS FOR TIME STEP   3 IN STRESS PERIOD    9

 MAXIMUM HEAD CHANGE FOR EACH ITERATION:

    HEAD CHANGE   HEAD CHANGE   HEAD CHANGE   HEAD CHANGE   HEAD CHANGE
  LAYER,ROW,COL LAYER,ROW,COL LAYER,ROW,COL LAYER,ROW,COL LAYER,ROW,COL
 ----------------------------------------------------------------------
      1.970         2.521         2.092        -1.628        -3.357    
  (  3,  1, 10) (  3,  1, 10) (  3,  1,  1) (  3,  1, 10) (  3,  1,  1)
     0.1991       -0.4289        -1.146        0.6164        0.9873E-01
  (  2,  4,  1) (  3,  1,  1) (  3,  1, 10) (  3,  1, 10) (  2, 10, 10)
    -0.5615E-01   -0.1510E-01   -0.7465E-02   -0.5123E-02   -0.1211E-02
  (  2, 10, 10) (  2,  1,  2) (  3,  3,  7) (  3,  3,  6) (  3,  3,  7)
     0.1444E-02    0.2200E-02    0.2401E-02    0.3789E-02    0.3337E-02
  (  3, 10,  1) (  3,  2,  1) (  3,  8,  3) (  3,  2,  1) (  3,  1, 10)
     0.1922E-02    0.2274E-02    0.1520E-02    0.1012E-02    0.7329E-03
  (  3,  1, 10) (  3,  1, 10) (  3,  1,  2) (  3,  1, 10) (  3,  1, 10)
     0.4533E-03    0.4794E-03    0.3386E-03    0.2195E-03    0.1594E-03
  (  3,  1, 10) (  3,  2,  9) (  3,  1, 10) (  3,  1, 10) (  3,  1,  2)
     0.9343E-04    0.1080E-03    0.7383E-04    0.4856E-04    0.3516E-04
  (  3,  1,  2) (  3,  1, 10) (  3,  1,  2) (  3,  1,  2) (  3,  1,  2)
     0.2157E-04    0.2322E-04    0.1600E-04    0.1078E-04    0.6115E-05
  (  3,  1, 10) (  3,  1,  2) (  3,  1, 10) (  3,  1,  2) (  3,  1, 10)


 OUTPUT CONTROL FOR STRESS PERIOD      9   TIME STEP     3
    SAVE HEAD FOR ALL LAYERS

 HEAD WILL BE SAVED ON UNIT   21 AT END OF TIME STEP     3 IN STRESS PERIOD      9
 
 SOLVING FOR HEAD 
    36 ITERATIONS FOR TIME STEP   4 IN STRESS PERIOD    9

 MAXIMUM HEAD CHANGE FOR EACH ITERATION:

    HEAD CHANGE   HEAD CHANGE   HEAD CHANGE   HEAD CHANGE   HEAD CHANGE
  LAYER,ROW,COL LAYER,ROW,COL LAYER,ROW,COL LAYER,ROW,COL LAYER,ROW,COL
 ----------------------------------------------------------------------
      1.450         1.889         1.620        -1.422        -3.201    
  (  3,  1, 10) (  3,  1, 10) (  3,  1,  1) (  3,  1, 10) (  3,  1,  1)
     0.4335        0.1879       -0.2734E-01   -0.2488E-01   -0.1896E-01
  (  3, 10, 10) (  3,  9,  6) (  3,  3,  7) (  3,  3,  6) (  3,  3,  7)
    -0.8488E-02   -0.1172E-01   -0.6478E-02   -0.3682E-02    0.1679E-02
  (  3,  3,  6) (  3,  3,  7) (  3,  3,  6) (  3,  3,  7) (  3,  8, 10)
     0.2203E-02    0.4157E-02    0.3426E-02    0.2237E-02    0.1558E-02
  (  3,  1,  1) (  3,  1,  1) (  3,  1, 10) (  3,  1, 10) (  3,  1, 10)
     0.8611E-03    0.1079E-02    0.7119E-03    0.4591E-03    0.3368E-03
  (  3,  1, 10) (  3,  1, 10) (  3,  1,  9) (  3,  1, 10) (  3,  1, 10)
     0.1903E-03    0.2087E-03    0.1537E-03    0.9855E-04    0.6643E-04
  (  3,  1, 10) (  3,  2, 10) (  3,  1, 10) (  3,  1, 10) (  3,  1, 10)
     0.3844E-04    0.4674E-04    0.3121E-04    0.1954E-04    0.1520E-04
  (  3,  1, 10) (  3,  1, 10) (  3,  1,  9) (  3,  1,  6) (  3,  1, 10)
     0.8142E-05
  (  3,  1, 10)


 OUTPUT CONTROL FOR STRESS PERIOD      9   TIME STEP     4
    SAVE HEAD FOR ALL LAYERS

 HEAD WILL BE SAVED ON UNIT   21 AT END OF TIME STEP     4 IN STRESS PERIOD      9
 
 SOLVING FOR HEAD 
    34 ITERATIONS FOR TIME STEP   5 IN STRESS PERIOD    9

 MAXIMUM HEAD CHANGE FOR EACH ITERATION:

    HEAD CHANGE   HEAD CHANGE   HEAD CHANGE   HEAD CHANGE   HEAD CHANGE
  LAYER,ROW,COL LAYER,ROW,COL LAYER,ROW,COL LAYER,ROW,COL LAYER,ROW,COL
 ----------------------------------------------------------------------
     0.9933         1.286         1.058        -1.374        -2.801    
  (  3,  1, 10) (  3,  1, 10) (  3,  1,  1) (  3,  1, 10) (  3,  1,  1)
     0.8654        0.5201        0.1479        0.6600E-01   -0.3830E-01
  (  3, 10,  1) (  3,  9,  3) (  2,  1,  8) (  2, 10,  1) (  2, 10, 10)
     0.8317E-01   -0.1400E-01   -0.9533E-02   -0.5124E-02   -0.3446E-02
  (  2,  6,  1) (  3,  3,  7) (  3,  9,  5) (  3,  9,  6) (  3,  9,  5)
    -0.2966E-02   -0.2385E-02   -0.1769E-02   -0.9804E-03   -0.6460E-03
  (  2,  5,  1) (  3,  9,  5) (  3,  9,  5) (  3,  9,  6) (  3,  9,  6)
    -0.3053E-03   -0.4401E-03   -0.3395E-03   -0.1852E-03   -0.1250E-03
  (  3, 10, 10) (  3,  9,  5) (  3,  9,  5) (  3,  9,  6) (  3,  9,  6)
    -0.6253E-04   -0.8631E-04   -0.6389E-04   -0.4079E-04   -0.2851E-04
  (  3,  3,  6) (  3,  9,  6) (  3,  9,  6) (  3,  3,  6) (  3,  3,  6)
    -0.1550E-04   -0.1440E-04   -0.1049E-04   -0.4581E-05
  (  3,  3,  6) (  3,  3,  6) (  3,  3,  6) (  3,  3,  6)


 OUTPUT CONTROL FOR STRESS PERIOD      9   TIME STEP     5
    SAVE HEAD FOR ALL LAYERS

 HEAD WILL BE SAVED ON UNIT   21 AT END OF TIME STEP     5 IN STRESS PERIOD      9
 
 SOLVING FOR HEAD 
    33 ITERATIONS FOR TIME STEP   6 IN STRESS PERIOD    9

 MAXIMUM HEAD CHANGE FOR EACH ITERATION:

    HEAD CHANGE   HEAD CHANGE   HEAD CHANGE   HEAD CHANGE   HEAD CHANGE
  LAYER,ROW,COL LAYER,ROW,COL LAYER,ROW,COL LAYER,ROW,COL LAYER,ROW,COL
 ----------------------------------------------------------------------
     0.6046        0.7429        0.4406        -1.413       -0.8887    
  (  3,  1, 10) (  3,  1, 10) (  3,  2,  1) (  3,  1, 10) (  3,  1,  1)
     0.3701        0.1886        0.4403E-01   -0.2240E-01   -0.1812E-01
  (  3,  1, 10) (  3,  2,  2) (  2,  1,  9) (  3,  3,  6) (  2,  1, 10)
     0.1364E-01   -0.9354E-02   -0.7874E-02   -0.4147E-02   -0.2666E-02
  (  2,  7,  1) (  3,  3,  6) (  3,  3,  6) (  3,  3,  6) (  3,  3,  6)
    -0.2040E-02   -0.1759E-02   -0.1471E-02   -0.8081E-03   -0.5199E-03
  (  2,  7,  1) (  3,  3,  6) (  3,  3,  6) (  3,  3,  6) (  3,  3,  6)
    -0.2979E-03   -0.3449E-03   -0.2906E-03   -0.1619E-03   -0.1109E-03
  (  2,  7,  1) (  3,  3,  6) (  3,  3,  6) (  3,  3,  6) (  3,  3,  6)
    -0.5177E-04   -0.7086E-04   -0.5922E-04   -0.3650E-04   -0.2375E-04
  (  3,  3,  6) (  3,  3,  6) (  3,  3,  6) (  3,  3,  6) (  3,  3,  6)
    -0.1265E-04   -0.1089E-04   -0.7940E-05
  (  3,  3,  6) (  3,  3,  6) (  3,  3,  6)


 OUTPUT CONTROL FOR STRESS PERIOD      9   TIME STEP     6
    PRINT BUDGET
    PRINT HEAD FOR ALL LAYERS
    SAVE HEAD FOR ALL LAYERS
    SAVE DRAWDOWN FOR ALL LAYERS
1
              HEAD IN LAYER   1 AT END OF TIME STEP   6 IN STRESS PERIOD    9
  ---------------------------------------------------------------------------

           1       2       3       4       5       6       7       8       9      10
 ...................................................................................
   1    21.73   21.39   20.72   20.31   20.10   20.10   20.30   20.72   21.38   21.73
   2    20.70   20.20   19.78   19.48   19.33   19.33   19.48   19.77   20.19   20.69
   3    19.21   18.72   18.35   18.11   17.98   17.98   18.10   18.34   18.71   19.20
   4    17.17   16.74   16.45   16.26   16.16   16.16   16.25   16.44   16.73   17.17
   5    14.29   14.20   14.10   14.02   13.97   13.97   14.01   14.09   14.19   14.28
   6    11.71   11.69   11.65   11.61   11.59   11.59   11.61   11.64   11.68   11.71
   7     9.20    9.18    9.14    9.11    9.09    9.08    9.11    9.14    9.18    9.20
   8     6.75    6.69    6.60    6.50    6.45    6.45    6.50    6.60    6.69    6.75
   9     4.48    4.31    4.02    3.68    3.54    3.54    3.68    4.02    4.31    4.47
  10     2.84    2.42    1.53    0.00    0.00    0.00    0.00    1.53    2.42    2.83
1
              HEAD IN LAYER   2 AT END OF TIME STEP   6 IN STRESS PERIOD    9
  ---------------------------------------------------------------------------

           1       2       3       4       5       6       7       8       9      10
 ...................................................................................
   1     1.15    1.17    1.19    1.18    1.18    1.16    1.14    1.11    1.08    1.03
   2     0.99    2.41    2.20    1.73    1.25    0.89    0.93    1.26    1.53    0.81
   3     0.78    1.75    1.34    0.55   -0.60   -2.15   -1.75   -0.43    0.45    0.56
   4     0.52    1.23    0.90    0.32   -0.42   -1.25   -1.10   -0.39    0.18    0.29
   5     0.23    0.72    0.59    0.33    0.05   -0.16   -0.18   -0.05    0.09    0.02
   6    -0.07    0.21    0.16    0.05   -0.06   -0.14   -0.17   -0.15   -0.14   -0.26
   7    -0.39   -0.41   -0.47   -0.53   -0.58   -0.62   -0.63   -0.63   -0.60   -0.54
   8    -0.71   -1.17   -1.29   -1.36   -1.41   -1.43   -1.42   -1.38   -1.27   -0.82
   9    -1.01   -1.97   -2.25   -2.42   -2.50   -2.51   -2.45   -2.29   -2.03   -1.09
  10    -1.29   -1.35   -1.40   -1.44   -1.46   -1.46   -1.45   -1.42   -1.38   -1.33
1
              HEAD IN LAYER   3 AT END OF TIME STEP   6 IN STRESS PERIOD    9
  ---------------------------------------------------------------------------

           1       2       3       4       5       6       7       8       9      10
 ...................................................................................
   1   -14.42  -14.58  -14.88  -15.27  -15.68  -16.01  -16.15  -16.13  -16.05  -15.99
   2   -14.58  -14.82  -15.31  -16.02  -16.86  -17.60  -17.66  -17.25  -16.84  -16.61
   3   -14.54  -14.91  -15.71  -17.08  -19.27  -22.85  -21.98  -19.28  -17.81  -17.16
   4   -13.76  -14.06  -14.69  -15.68  -17.08  -18.92  -18.64  -17.29  -16.41  -15.98
   5   -12.48  -12.64  -12.96  -13.41  -13.92  -14.36  -14.43  -14.24  -14.02  -13.89
   6   -11.14  -11.22  -11.37  -11.56  -11.76  -11.92  -11.99  -12.00  -11.96  -11.94
   7   -10.02  -10.05  -10.12  -10.20  -10.29  -10.36  -10.41  -10.44  -10.45  -10.45
   8    -9.19   -9.20   -9.23   -9.27   -9.31   -9.35   -9.38   -9.40   -9.41   -9.42
   9    -8.65   -8.66   -8.67   -8.70   -8.72   -8.74   -8.76   -8.77   -8.78   -8.78
  10    -8.38   -8.39   -8.40   -8.41   -8.43   -8.44   -8.45   -8.46   -8.47   -8.47

 HEAD WILL BE SAVED ON UNIT   21 AT END OF TIME STEP     6 IN STRESS PERIOD      9

 DRAWDOWN WILL BE SAVED ON UNIT   22 AT END OF TIME STEP     6 IN STRESS PERIOD      9



  -------------------------------------------------------------------------------------
  VOLUMETRIC BUDGET FOR ENTIRE MODEL AT END OF TIME STEP    6 IN STRESS PERIOD      9
  -------------------------------------------------------------------------------------

     CUMULATIVE VOLUMES      L**3       RATES FOR THIS TIME STEP      L**3/T
     ------------------                 ------------------------

           IN:                                      IN:
           ---                                      ---
             STORAGE =    15470540.6068               STORAGE =        4608.5772
       CONSTANT HEAD =       36260.8107         CONSTANT HEAD =          34.8190
               WELLS =    87702000.0000                 WELLS =       30000.0000
    INST. IB STORAGE =    23351797.2670      INST. IB STORAGE =        5728.4428
    DELAY IB STORAGE =    43675361.1753      DELAY IB STORAGE =       16692.1219

            TOTAL IN =   170235959.8598              TOTAL IN =       57063.9609

          OUT:                                     OUT:
          ----                                     ----
             STORAGE =           0.0000               STORAGE =           0.0000
       CONSTANT HEAD =    82563957.8810         CONSTANT HEAD =       27063.9647
               WELLS =    87672000.0000                 WELLS =       30000.0000
    INST. IB STORAGE =       5.0823E-08      INST. IB STORAGE =       1.6577E-11
    DELAY IB STORAGE =       1.7530E-11      DELAY IB STORAGE =           0.0000

           TOTAL OUT =   170235957.8810             TOTAL OUT =       57063.9647

            IN - OUT =           1.9788              IN - OUT =      -3.7972E-03

 PERCENT DISCREPANCY =           0.00     PERCENT DISCREPANCY =          -0.00


          TIME SUMMARY AT END OF TIME STEP     6 IN STRESS PERIOD      9
                    SECONDS     MINUTES      HOURS       DAYS        YEARS
                    -----------------------------------------------------------
   TIME STEP LENGTH 9.18681E+06 1.53113E+05  2551.9      106.33     0.29111    
 STRESS PERIOD TIME 3.15619E+07 5.26032E+05  8767.2      365.30      1.0001    
         TOTAL TIME 2.52582E+08 4.20970E+06  70162.      2923.4      8.0038    
 

                               VOLUMETRIC BUDGET FOR SYSTEMS OF DELAY INTERBEDS
                                          AT END OF TIME STEP  6 IN STRESS PERIOD  9

          |   C U M U L A T I V E   V O L U M E S   L**3           | R A T E S   F O R  T H I S  T I M E  S T E P   L**3/T  |
   SYSTEM |    CHANGE IN     BOUNDARY                    PERCENT   |    CHANGE IN     BOUNDARY                    PERCENT   |
   NUMBER |     STORAGE        FLOW           SUM      DISCREPANCY |     STORAGE        FLOW           SUM      DISCREPANCY |
  --------|--------------------------------------------------------|--------------------------------------------------------|
      1     37253.        -37253.       -0.72760E-11   -0.19531E-13     11.746        -11.746       -0.53291E-14   -0.45370E-13
      2    0.43638E+08   -0.43638E+08    0.14901E-07    0.34147E-13     16680.        -16680.        0.36380E-11    0.21810E-13
  --------|--------------------------------------------------------|--------------------------------------------------------|
 TOTALS:    0.43675E+08   -0.43675E+08    0.14901E-07    0.34118E-13     16692.        -16692.        0.36380E-11    0.21795E-13
1
                            STRESS PERIOD NO.     10, LENGTH =   365.3000    
                            -----------------------------------------------

                              NUMBER OF TIME STEPS =     6

                               MULTIPLIER FOR DELT =     1.300

                            INITIAL TIME STEP SIZE =   28.63744    

REUSING NON-PARAMETER WELLS FROM LAST STRESS PERIOD

14 WELLS
 
 SOLVING FOR HEAD 

    44 ITERATIONS FOR TIME STEP   1 IN STRESS PERIOD   10

 MAXIMUM HEAD CHANGE FOR EACH ITERATION:

    HEAD CHANGE   HEAD CHANGE   HEAD CHANGE   HEAD CHANGE   HEAD CHANGE
  LAYER,ROW,COL LAYER,ROW,COL LAYER,ROW,COL LAYER,ROW,COL LAYER,ROW,COL
 ----------------------------------------------------------------------
      3.097         3.599         2.404        -2.179        -3.175    
  (  3,  1, 10) (  3,  2,  8) (  3,  2,  1) (  3,  1, 10) (  3,  1,  1)
    -0.3194       -0.7548        -1.744        -1.081        0.8350    
  (  3,  1, 10) (  3,  1,  1) (  3,  1, 10) (  3,  1,  1) (  3,  1,  1)
    -0.8217E-01   -0.1152E-01   -0.5828E-02   -0.6084E-02   -0.1548E-02
  (  2,  7,  1) (  3,  3,  7) (  3,  3,  7) (  3,  3,  7) (  3,  1, 10)
    -0.3075E-02    0.7937E-03   -0.1784E-02    0.2027E-02    0.9535E-03
  (  3,  3,  7) (  3, 10,  1) (  3,  3,  7) (  3,  1,  1) (  3,  7,  1)
     0.2058E-02    0.1439E-02    0.1846E-02    0.2575E-02    0.1782E-02
  (  3,  1,  1) (  3,  1, 10) (  3,  1,  1) (  3,  3, 10) (  3,  1,  9)
     0.1233E-02    0.1154E-02    0.8150E-03    0.5725E-03    0.4288E-03
  (  3,  1, 10) (  3,  2,  6) (  3,  2,  6) (  3,  1,  9) (  3,  1,  8)
     0.2804E-03    0.2867E-03    0.1948E-03    0.1406E-03    0.1035E-03
  (  3,  1, 10) (  3,  2,  6) (  3,  2,  6) (  3,  2,  6) (  3,  1,  9)
     0.7173E-04    0.6827E-04    0.4880E-04    0.3368E-04    0.2585E-04
  (  3,  1, 10) (  3,  2,  6) (  3,  2,  6) (  3,  2,  6) (  3,  2,  6)
     0.1633E-04    0.1673E-04    0.1125E-04    0.7779E-05
  (  3,  1,  9) (  3,  2,  6) (  3,  2,  6) (  3,  1,  8)


 OUTPUT CONTROL FOR STRESS PERIOD     10   TIME STEP     1
    SAVE HEAD FOR ALL LAYERS

 HEAD WILL BE SAVED ON UNIT   21 AT END OF TIME STEP     1 IN STRESS PERIOD     10
 
 SOLVING FOR HEAD 
    42 ITERATIONS FOR TIME STEP   2 IN STRESS PERIOD   10

 MAXIMUM HEAD CHANGE FOR EACH ITERATION:

    HEAD CHANGE   HEAD CHANGE   HEAD CHANGE   HEAD CHANGE   HEAD CHANGE
  LAYER,ROW,COL LAYER,ROW,COL LAYER,ROW,COL LAYER,ROW,COL LAYER,ROW,COL
 ----------------------------------------------------------------------
      2.503         3.058         2.373        -1.784        -3.343    
  (  3,  1, 10) (  3,  1, 10) (  3,  2,  1) (  3,  1, 10) (  3,  1,  1)
    -0.2557       -0.6137        -1.549        0.3620        0.3620E-01
  (  3,  1, 10) (  3,  1,  1) (  3,  1, 10) (  3, 10,  1) (  2, 10,  1)
    -0.6923E-01   -0.7632E-02   -0.6763E-02    0.1426E-02   -0.3206E-02
  (  2,  8,  1) (  3,  3,  7) (  3,  3,  6) (  3, 10,  3) (  3,  3,  7)
     0.1832E-02    0.1423E-02    0.3670E-02    0.1732E-02    0.3535E-02
  (  3,  1,  2) (  3, 10,  3) (  3,  1,  2) (  3, 10, 10) (  3,  1, 10)
     0.1534E-02    0.3749E-02    0.2687E-02    0.1811E-02    0.1334E-02
  (  3,  1,  1) (  3,  1,  2) (  3,  1,  1) (  3,  1,  3) (  3,  1,  1)
     0.8429E-03    0.9078E-03    0.6105E-03    0.4175E-03    0.3062E-03
  (  3,  1, 10) (  3,  2,  2) (  3,  2,  3) (  3,  1,  1) (  3,  1,  1)
     0.1970E-03    0.2096E-03    0.1419E-03    0.9529E-04    0.7003E-04
  (  3,  1,  1) (  3,  2,  2) (  3,  1,  1) (  3,  1,  3) (  3,  1,  1)
     0.4421E-04    0.4763E-04    0.3208E-04    0.2196E-04    0.1611E-04
  (  3,  1, 10) (  3,  2,  2) (  3,  2,  3) (  3,  1,  1) (  3,  1,  3)
     0.1039E-04    0.4799E-05
  (  3,  1,  1) (  3,  1,  1)


 OUTPUT CONTROL FOR STRESS PERIOD     10   TIME STEP     2
    SAVE HEAD FOR ALL LAYERS

 HEAD WILL BE SAVED ON UNIT   21 AT END OF TIME STEP     2 IN STRESS PERIOD     10
 
 SOLVING FOR HEAD 
    40 ITERATIONS FOR TIME STEP   3 IN STRESS PERIOD   10

 MAXIMUM HEAD CHANGE FOR EACH ITERATION:

    HEAD CHANGE   HEAD CHANGE   HEAD CHANGE   HEAD CHANGE   HEAD CHANGE
  LAYER,ROW,COL LAYER,ROW,COL LAYER,ROW,COL LAYER,ROW,COL LAYER,ROW,COL
 ----------------------------------------------------------------------
      1.941         2.462         2.092        -1.538        -3.345    
  (  3,  1, 10) (  3,  1, 10) (  3,  1,  1) (  3,  1, 10) (  3,  1,  1)
     0.1982       -0.4298        -1.147        0.5877        0.1010    
  (  2,  4,  1) (  3,  1,  1) (  3,  1, 10) (  3,  1, 10) (  2, 10, 10)
    -0.5584E-01   -0.1403E-01   -0.7600E-02   -0.4479E-02   -0.1853E-02
  (  2, 10, 10) (  2,  1,  2) (  3,  3,  7) (  3,  3,  6) (  3,  3,  8)
     0.1266E-02    0.1818E-02    0.2464E-02    0.3344E-02    0.3548E-02
  (  3, 10,  1) (  3,  5,  1) (  3, 10,  1) (  3,  1,  1) (  3,  1, 10)
     0.2041E-02    0.2418E-02    0.1598E-02    0.1078E-02    0.7774E-03
  (  3,  1, 10) (  3,  1, 10) (  3,  2,  9) (  3,  1, 10) (  3,  1, 10)
     0.4816E-03    0.5079E-03    0.3604E-03    0.2327E-03    0.1681E-03
  (  3,  1, 10) (  3,  2,  9) (  3,  1, 10) (  3,  1,  9) (  3,  1, 10)
     0.9734E-04    0.1145E-03    0.7562E-04    0.5099E-04    0.3715E-04
  (  3,  1, 10) (  3,  1, 10) (  3,  2,  9) (  3,  1, 10) (  3,  1, 10)
     0.2284E-04    0.2404E-04    0.1702E-04    0.1110E-04    0.6991E-05
  (  3,  1, 10) (  3,  2,  9) (  3,  1, 10) (  3,  1,  9) (  3,  1, 10)


 OUTPUT CONTROL FOR STRESS PERIOD     10   TIME STEP     3
    SAVE HEAD FOR ALL LAYERS

 HEAD WILL BE SAVED ON UNIT   21 AT END OF TIME STEP     3 IN STRESS PERIOD     10
 
 SOLVING FOR HEAD 
    36 ITERATIONS FOR TIME STEP   4 IN STRESS PERIOD   10

 MAXIMUM HEAD CHANGE FOR EACH ITERATION:

    HEAD CHANGE   HEAD CHANGE   HEAD CHANGE   HEAD CHANGE   HEAD CHANGE
  LAYER,ROW,COL LAYER,ROW,COL LAYER,ROW,COL LAYER,ROW,COL LAYER,ROW,COL
 ----------------------------------------------------------------------
      1.429         1.846         1.623        -1.339        -3.187    
  (  3,  1, 10) (  3,  1, 10) (  3,  1,  1) (  3,  1, 10) (  3,  1,  1)
     0.3893        0.1668       -0.2816E-01   -0.2266E-01   -0.1805E-01
  (  3, 10, 10) (  3,  9,  6) (  3,  3,  7) (  3,  3,  7) (  3,  3,  7)
    -0.7112E-02   -0.1120E-01   -0.5462E-02   -0.3739E-02    0.2866E-02
  (  3,  3,  6) (  3,  3,  7) (  3,  3,  6) (  3,  3,  7) (  3,  1, 10)
     0.1757E-02    0.4098E-02    0.3405E-02    0.2197E-02    0.1554E-02
  (  3,  6, 10) (  3,  1,  1) (  3,  1, 10) (  3,  1, 10) (  3,  1, 10)
     0.8473E-03    0.1065E-02    0.7257E-03    0.4585E-03    0.3285E-03
  (  3,  1, 10) (  3,  1, 10) (  3,  1,  1) (  3,  1, 10) (  3,  1, 10)
     0.1901E-03    0.2123E-03    0.1531E-03    0.9591E-04    0.6669E-04
  (  3,  1, 10) (  3,  1,  1) (  3,  1, 10) (  3,  1, 10) (  3,  1, 10)
     0.3788E-04    0.4582E-04    0.3037E-04    0.1974E-04    0.1466E-04
  (  3,  1, 10) (  3,  1, 10) (  3,  1,  9) (  3,  1, 10) (  3,  1, 10)
     0.8156E-05
  (  3,  1, 10)


 OUTPUT CONTROL FOR STRESS PERIOD     10   TIME STEP     4
    SAVE HEAD FOR ALL LAYERS

 HEAD WILL BE SAVED ON UNIT   21 AT END OF TIME STEP     4 IN STRESS PERIOD     10
 
 SOLVING FOR HEAD 
    33 ITERATIONS FOR TIME STEP   5 IN STRESS PERIOD   10

 MAXIMUM HEAD CHANGE FOR EACH ITERATION:

    HEAD CHANGE   HEAD CHANGE   HEAD CHANGE   HEAD CHANGE   HEAD CHANGE
  LAYER,ROW,COL LAYER,ROW,COL LAYER,ROW,COL LAYER,ROW,COL LAYER,ROW,COL
 ----------------------------------------------------------------------
     0.9805         1.259         1.070        -1.299        -2.818    
  (  3,  1, 10) (  3,  1, 10) (  3,  2,  1) (  3,  1, 10) (  3,  1,  1)
     0.8362        0.5031        0.1436        0.7371E-01   -0.5000E-01
  (  3, 10,  1) (  3,  9,  3) (  2,  1,  8) (  2, 10,  1) (  2, 10, 10)
     0.7997E-01    0.1340E-01   -0.8605E-02   -0.4675E-02   -0.3078E-02
  (  2,  6,  1) (  2,  1,  2) (  3,  9,  5) (  3,  9,  4) (  3,  9,  5)
    -0.2675E-02   -0.2149E-02   -0.1625E-02   -0.8730E-03   -0.5887E-03
  (  2,  5,  1) (  3,  9,  3) (  3,  9,  4) (  3,  9,  6) (  3,  9,  4)
    -0.2590E-03   -0.4011E-03   -0.3029E-03   -0.1680E-03   -0.1099E-03
  (  3, 10, 10) (  3,  9,  3) (  3,  9,  5) (  3,  9,  4) (  3,  9,  6)
    -0.5269E-04   -0.7673E-04   -0.5857E-04   -0.3504E-04   -0.2351E-04
  (  3,  3,  6) (  3,  9,  5) (  3,  9,  4) (  3,  3,  6) (  3,  3,  6)
    -0.1284E-04   -0.1210E-04   -0.7542E-05
  (  3,  3,  6) (  3,  3,  6) (  3,  3,  6)


 OUTPUT CONTROL FOR STRESS PERIOD     10   TIME STEP     5
    SAVE HEAD FOR ALL LAYERS

 HEAD WILL BE SAVED ON UNIT   21 AT END OF TIME STEP     5 IN STRESS PERIOD     10
 
 SOLVING FOR HEAD 
    33 ITERATIONS FOR TIME STEP   6 IN STRESS PERIOD   10

 MAXIMUM HEAD CHANGE FOR EACH ITERATION:

    HEAD CHANGE   HEAD CHANGE   HEAD CHANGE   HEAD CHANGE   HEAD CHANGE
  LAYER,ROW,COL LAYER,ROW,COL LAYER,ROW,COL LAYER,ROW,COL LAYER,ROW,COL
 ----------------------------------------------------------------------
     0.5985        0.7290        0.4578        -1.356        -1.071    
  (  3,  1, 10) (  3,  1, 10) (  3,  2,  1) (  3,  1, 10) (  3,  1,  1)
     0.4526        0.2540        0.6450E-01   -0.2255E-01   -0.2172E-01
  (  3,  1, 10) (  3,  2,  2) (  2,  1,  9) (  3,  2,  1) (  2,  1, 10)
     0.2063E-01   -0.1090E-01   -0.9137E-02   -0.4771E-02   -0.2998E-02
  (  2,  7,  1) (  3,  3,  6) (  3,  3,  6) (  3,  3,  6) (  3,  3,  6)
    -0.2424E-02   -0.1992E-02   -0.1679E-02   -0.8905E-03   -0.5745E-03
  (  2,  7,  1) (  3,  3,  6) (  3,  3,  6) (  3,  3,  6) (  3,  3,  6)
    -0.3588E-03   -0.3803E-03   -0.3178E-03   -0.1747E-03   -0.1154E-03
  (  2,  8,  1) (  3,  3,  6) (  3,  3,  6) (  3,  3,  6) (  3,  3,  6)
    -0.5143E-04   -0.7493E-04   -0.6317E-04   -0.3676E-04   -0.2395E-04
  (  3,  3,  6) (  3,  3,  6) (  3,  3,  6) (  3,  3,  6) (  3,  3,  6)
    -0.1189E-04   -0.1054E-04   -0.7208E-05
  (  3,  3,  6) (  3,  3,  6) (  3,  3,  6)


 OUTPUT CONTROL FOR STRESS PERIOD     10   TIME STEP     6
    PRINT BUDGET
    PRINT HEAD FOR ALL LAYERS
    SAVE HEAD FOR ALL LAYERS
    SAVE DRAWDOWN FOR ALL LAYERS
1
              HEAD IN LAYER   1 AT END OF TIME STEP   6 IN STRESS PERIOD   10
  ---------------------------------------------------------------------------

           1       2       3       4       5       6       7       8       9      10
 ...................................................................................
   1    21.62   21.27   20.61   20.19   19.98   19.98   20.19   20.60   21.26   21.61
   2    20.59   20.09   19.66   19.37   19.21   19.21   19.36   19.66   20.08   20.58
   3    19.10   18.61   18.24   17.99   17.87   17.86   17.99   18.23   18.60   19.09
   4    17.07   16.64   16.34   16.15   16.05   16.05   16.14   16.33   16.63   17.06
   5    14.19   14.10   14.00   13.92   13.87   13.87   13.92   14.00   14.10   14.18
   6    11.63   11.60   11.56   11.52   11.50   11.50   11.52   11.56   11.59   11.62
   7     9.13    9.11    9.07    9.04    9.01    9.01    9.03    9.07    9.11    9.13
   8     6.69    6.64    6.54    6.45    6.40    6.40    6.45    6.54    6.63    6.69
   9     4.44    4.27    3.98    3.65    3.51    3.51    3.65    3.98    4.27    4.44
  10     2.81    2.40    1.52    0.00    0.00    0.00    0.00    1.52    2.40    2.81
1
              HEAD IN LAYER   2 AT END OF TIME STEP   6 IN STRESS PERIOD   10
  ---------------------------------------------------------------------------

           1       2       3       4       5       6       7       8       9      10
 ...................................................................................
   1     0.78    0.80    0.81    0.81    0.80    0.79    0.76    0.74    0.71    0.66
   2     0.63    2.00    1.77    1.30    0.82    0.45    0.49    0.82    1.11    0.45
   3     0.43    1.35    0.93    0.13   -1.02   -2.57   -2.18   -0.85    0.04    0.21
   4     0.18    0.86    0.51   -0.07   -0.81   -1.65   -1.50   -0.79   -0.21   -0.05
   5    -0.09    0.38    0.24   -0.02   -0.30   -0.52   -0.54   -0.40   -0.26   -0.31
   6    -0.38   -0.10   -0.15   -0.26   -0.37   -0.45   -0.48   -0.47   -0.45   -0.57
   7    -0.69   -0.68   -0.73   -0.79   -0.85   -0.89   -0.90   -0.90   -0.88   -0.84
   8    -0.99   -1.41   -1.53   -1.60   -1.64   -1.66   -1.65   -1.61   -1.52   -1.11
   9    -1.29   -2.19   -2.45   -2.62   -2.70   -2.71   -2.65   -2.50   -2.25   -1.36
  10    -1.55   -1.61   -1.66   -1.70   -1.72   -1.72   -1.71   -1.68   -1.64   -1.59
1
              HEAD IN LAYER   3 AT END OF TIME STEP   6 IN STRESS PERIOD   10
  ---------------------------------------------------------------------------

           1       2       3       4       5       6       7       8       9      10
 ...................................................................................
   1   -15.17  -15.33  -15.63  -16.02  -16.44  -16.77  -16.92  -16.90  -16.82  -16.76
   2   -15.31  -15.56  -16.05  -16.76  -17.60  -18.36  -18.42  -18.01  -17.60  -17.36
   3   -15.24  -15.61  -16.42  -17.79  -20.00  -23.58  -22.72  -20.01  -18.54  -17.89
   4   -14.41  -14.72  -15.35  -16.34  -17.75  -19.60  -19.32  -17.97  -17.09  -16.66
   5   -13.07  -13.23  -13.56  -14.01  -14.53  -14.97  -15.04  -14.85  -14.63  -14.50
   6   -11.67  -11.75  -11.89  -12.09  -12.29  -12.45  -12.53  -12.53  -12.50  -12.48
   7   -10.48  -10.52  -10.58  -10.67  -10.75  -10.83  -10.88  -10.91  -10.92  -10.92
   8    -9.59   -9.61   -9.64   -9.68   -9.73   -9.76   -9.80   -9.82   -9.83   -9.83
   9    -9.02   -9.03   -9.05   -9.07   -9.09   -9.11   -9.13   -9.14   -9.15   -9.15
  10    -8.73   -8.74   -8.75   -8.76   -8.78   -8.79   -8.81   -8.82   -8.82   -8.83

 HEAD WILL BE SAVED ON UNIT   21 AT END OF TIME STEP     6 IN STRESS PERIOD     10

 DRAWDOWN WILL BE SAVED ON UNIT   22 AT END OF TIME STEP     6 IN STRESS PERIOD     10



  -------------------------------------------------------------------------------------
  VOLUMETRIC BUDGET FOR ENTIRE MODEL AT END OF TIME STEP    6 IN STRESS PERIOD     10
  -------------------------------------------------------------------------------------

     CUMULATIVE VOLUMES      L**3       RATES FOR THIS TIME STEP      L**3/T
     ------------------                 ------------------------

           IN:                                      IN:
           ---                                      ---
             STORAGE =    17129507.5716               STORAGE =        4497.7687
       CONSTANT HEAD =       50345.6684         CONSTANT HEAD =          41.0574
               WELLS =    98661000.0000                 WELLS =       30000.0000
    INST. IB STORAGE =    25422863.6925      INST. IB STORAGE =        5631.9357
    DELAY IB STORAGE =    49763119.7473      DELAY IB STORAGE =       16644.7804

            TOTAL IN =   191026836.6799              TOTAL IN =       56815.5421

          OUT:                                     OUT:
          ----                                     ----
             STORAGE =           0.0000               STORAGE =           0.0000
       CONSTANT HEAD =    92395832.3571         CONSTANT HEAD =       26815.5458
               WELLS =    98631000.0000                 WELLS =       30000.0000
    INST. IB STORAGE =       5.9699E-08      INST. IB STORAGE =       1.4751E-11
    DELAY IB STORAGE =       2.5499E-11      DELAY IB STORAGE =           0.0000

           TOTAL OUT =   191026832.3571             TOTAL OUT =       56815.5458

            IN - OUT =           4.3228              IN - OUT =      -3.7090E-03

 PERCENT DISCREPANCY =           0.00     PERCENT DISCREPANCY =          -0.00


          TIME SUMMARY AT END OF TIME STEP     6 IN STRESS PERIOD     10
                    SECONDS     MINUTES      HOURS       DAYS        YEARS
                    -----------------------------------------------------------
   TIME STEP LENGTH 9.18681E+06 1.53113E+05  2551.9      106.33     0.29111    
 STRESS PERIOD TIME 3.15619E+07 5.26032E+05  8767.2      365.30      1.0001    
         TOTAL TIME 2.84144E+08 4.73573E+06  78929.      3288.7      9.0040    
 

                               VOLUMETRIC BUDGET FOR SYSTEMS OF DELAY INTERBEDS
                                          AT END OF TIME STEP  6 IN STRESS PERIOD 10

          |   C U M U L A T I V E   V O L U M E S   L**3           | R A T E S   F O R  T H I S  T I M E  S T E P   L**3/T  |
   SYSTEM |    CHANGE IN     BOUNDARY                    PERCENT   |    CHANGE IN     BOUNDARY                    PERCENT   |
   NUMBER |     STORAGE        FLOW           SUM      DISCREPANCY |     STORAGE        FLOW           SUM      DISCREPANCY |
  --------|--------------------------------------------------------|--------------------------------------------------------|
      1     41676.        -41676.       -0.72760E-11   -0.17458E-13     11.750        -11.750         0.0000         0.0000    
      2    0.49721E+08   -0.49721E+08    0.74506E-08    0.14985E-13     16633.        -16633.         0.0000         0.0000    
  --------|--------------------------------------------------------|--------------------------------------------------------|
 TOTALS:    0.49763E+08   -0.49763E+08    0.74506E-08    0.14972E-13     16645.        -16645.         0.0000         0.0000    
1
                            STRESS PERIOD NO.     11, LENGTH =   365.3000    
                            -----------------------------------------------

                              NUMBER OF TIME STEPS =     6

                               MULTIPLIER FOR DELT =     1.300

                            INITIAL TIME STEP SIZE =   28.63744    

REUSING NON-PARAMETER WELLS FROM LAST STRESS PERIOD

14 WELLS
 
 SOLVING FOR HEAD 

    44 ITERATIONS FOR TIME STEP   1 IN STRESS PERIOD   11

 MAXIMUM HEAD CHANGE FOR EACH ITERATION:

    HEAD CHANGE   HEAD CHANGE   HEAD CHANGE   HEAD CHANGE   HEAD CHANGE
  LAYER,ROW,COL LAYER,ROW,COL LAYER,ROW,COL LAYER,ROW,COL LAYER,ROW,COL
 ----------------------------------------------------------------------
      3.031         3.503         2.378        -2.091        -3.131    
  (  3,  1, 10) (  3,  2,  8) (  3,  2,  1) (  3,  1, 10) (  3,  1,  1)
    -0.3122       -0.7432        -1.708        -1.092        0.8352    
  (  3,  1, 10) (  3,  1,  1) (  3,  1, 10) (  3,  1,  1) (  3,  1,  1)
    -0.8009E-01   -0.1054E-01   -0.5792E-02   -0.5509E-02   -0.1782E-02
  (  2,  7,  1) (  3,  3,  7) (  3,  3,  6) (  3,  3,  6) (  3,  1, 10)
    -0.2722E-02    0.6636E-03   -0.1458E-02    0.1786E-02    0.7875E-03
  (  3,  3,  6) (  3, 10,  2) (  3,  3,  6) (  3,  1,  1) (  3,  7,  8)
     0.1906E-02    0.1518E-02    0.1734E-02    0.2565E-02    0.1799E-02
  (  3,  1,  1) (  3,  1, 10) (  3,  1,  1) (  3,  3, 10) (  3,  1, 10)
     0.1249E-02    0.1141E-02    0.8173E-03    0.5784E-03    0.4334E-03
  (  3,  1, 10) (  3,  3,  4) (  3,  1, 10) (  3,  1,  9) (  3,  1, 10)
     0.2847E-03    0.2827E-03    0.1937E-03    0.1405E-03    0.1048E-03
  (  3,  1, 10) (  3,  1, 10) (  3,  3,  4) (  3,  1, 10) (  3,  1, 10)
     0.7282E-04    0.6803E-04    0.4804E-04    0.3377E-04    0.2528E-04
  (  3,  1, 10) (  3,  3,  4) (  3,  3,  4) (  3,  1,  9) (  3,  3,  4)
     0.1665E-04    0.1657E-04    0.1173E-04    0.7882E-05
  (  3,  1, 10) (  3,  3,  4) (  3,  3,  4) (  3,  1, 10)


 OUTPUT CONTROL FOR STRESS PERIOD     11   TIME STEP     1
    SAVE HEAD FOR ALL LAYERS

 HEAD WILL BE SAVED ON UNIT   21 AT END OF TIME STEP     1 IN STRESS PERIOD     11
 
 SOLVING FOR HEAD 
    42 ITERATIONS FOR TIME STEP   2 IN STRESS PERIOD   11

 MAXIMUM HEAD CHANGE FOR EACH ITERATION:

    HEAD CHANGE   HEAD CHANGE   HEAD CHANGE   HEAD CHANGE   HEAD CHANGE
  LAYER,ROW,COL LAYER,ROW,COL LAYER,ROW,COL LAYER,ROW,COL LAYER,ROW,COL
 ----------------------------------------------------------------------
      2.450         2.973         2.353        -1.701        -3.304    
  (  3,  1, 10) (  3,  1, 10) (  3,  2,  1) (  3,  1, 10) (  3,  1,  1)
    -0.2500       -0.6067        -1.523        0.3387        0.3481E-01
  (  3,  1, 10) (  3,  1,  1) (  3,  1, 10) (  3, 10,  1) (  2, 10,  1)
    -0.6784E-01   -0.7892E-02   -0.5889E-02   -0.1738E-02   -0.2710E-02
  (  2,  8,  1) (  2,  1,  2) (  3,  3,  7) (  3,  3,  7) (  3,  3,  7)
     0.1449E-02    0.1254E-02    0.3054E-02    0.1749E-02    0.3325E-02
  (  3,  7,  1) (  3, 10,  4) (  3,  1, 10) (  3, 10,  4) (  3,  1,  1)
     0.1601E-02    0.3093E-02    0.2636E-02    0.1963E-02    0.1413E-02
  (  3,  1,  5) (  3,  1, 10) (  3,  1,  5) (  3,  1,  5) (  3,  1,  5)
     0.9094E-03    0.9083E-03    0.6652E-03    0.4464E-03    0.3394E-03
  (  3,  1,  5) (  3,  1,  5) (  3,  1,  5) (  3,  1,  5) (  3,  1,  5)
     0.2070E-03    0.2182E-03    0.1502E-03    0.1082E-03    0.7708E-04
  (  3,  1,  5) (  3,  1,  5) (  3,  1,  5) (  3,  1,  5) (  3,  1,  5)
     0.5109E-04    0.4953E-04    0.3673E-04    0.2456E-04    0.1903E-04
  (  3,  1,  5) (  3,  1,  5) (  3,  1,  5) (  3,  1,  5) (  3,  1,  5)
     0.1171E-04    0.8724E-05
  (  3,  1,  5) (  3,  1,  5)


 OUTPUT CONTROL FOR STRESS PERIOD     11   TIME STEP     2
    SAVE HEAD FOR ALL LAYERS

 HEAD WILL BE SAVED ON UNIT   21 AT END OF TIME STEP     2 IN STRESS PERIOD     11
 
 SOLVING FOR HEAD 
    40 ITERATIONS FOR TIME STEP   3 IN STRESS PERIOD   11

 MAXIMUM HEAD CHANGE FOR EACH ITERATION:

    HEAD CHANGE   HEAD CHANGE   HEAD CHANGE   HEAD CHANGE   HEAD CHANGE
  LAYER,ROW,COL LAYER,ROW,COL LAYER,ROW,COL LAYER,ROW,COL LAYER,ROW,COL
 ----------------------------------------------------------------------
      1.900         2.394         2.077        -1.460        -3.318    
  (  3,  1, 10) (  3,  1, 10) (  3,  2,  1) (  3,  1, 10) (  3,  1,  1)
     0.1988       -0.4242        -1.133        0.5711        0.1090    
  (  2,  5,  1) (  3,  1,  1) (  3,  1, 10) (  3,  1, 10) (  2, 10, 10)
    -0.5868E-01   -0.1416E-01   -0.7406E-02   -0.3500E-02   -0.2138E-02
  (  2, 10, 10) (  2,  1,  2) (  3,  3,  6) (  3,  3,  7) (  3,  3,  8)
    -0.9061E-03    0.1841E-02    0.2074E-02    0.2887E-02    0.3433E-02
  (  2,  7,  1) (  3,  6,  1) (  3,  9,  2) (  3,  4,  1) (  3,  1, 10)
     0.1955E-02    0.2346E-02    0.1592E-02    0.1043E-02    0.7463E-03
  (  3,  1, 10) (  3,  2,  7) (  3,  2,  7) (  3,  1, 10) (  3,  1, 10)
     0.4624E-03    0.4987E-03    0.3483E-03    0.2224E-03    0.1615E-03
  (  3,  1, 10) (  3,  2,  7) (  3,  1, 10) (  3,  1,  9) (  3,  1, 10)
     0.9209E-04    0.1101E-03    0.7474E-04    0.4888E-04    0.3518E-04
  (  3,  1, 10) (  3,  1, 10) (  3,  2,  7) (  3,  1, 10) (  3,  1, 10)
     0.2173E-04    0.2341E-04    0.1631E-04    0.1049E-04    0.6937E-05
  (  3,  1, 10) (  3,  2,  7) (  3,  1, 10) (  3,  1, 10) (  3,  1, 10)


 OUTPUT CONTROL FOR STRESS PERIOD     11   TIME STEP     3
    SAVE HEAD FOR ALL LAYERS

 HEAD WILL BE SAVED ON UNIT   21 AT END OF TIME STEP     3 IN STRESS PERIOD     11
 
 SOLVING FOR HEAD 
    36 ITERATIONS FOR TIME STEP   4 IN STRESS PERIOD   11

 MAXIMUM HEAD CHANGE FOR EACH ITERATION:

    HEAD CHANGE   HEAD CHANGE   HEAD CHANGE   HEAD CHANGE   HEAD CHANGE
  LAYER,ROW,COL LAYER,ROW,COL LAYER,ROW,COL LAYER,ROW,COL LAYER,ROW,COL
 ----------------------------------------------------------------------
      1.399         1.796         1.609        -1.270        -3.162    
  (  3,  1, 10) (  3,  1, 10) (  3,  2,  1) (  3,  1, 10) (  3,  1,  1)
     0.3507        0.1484       -0.2665E-01   -0.2096E-01   -0.1686E-01
  (  3, 10, 10) (  3,  9,  6) (  3,  3,  7) (  3,  3,  6) (  3,  3,  7)
    -0.6410E-02   -0.1058E-01   -0.4848E-02   -0.3731E-02    0.2698E-02
  (  3,  1, 10) (  3,  3,  7) (  3,  3,  6) (  3,  3,  7) (  3,  1,  1)
     0.1723E-02    0.3836E-02    0.3376E-02    0.2244E-02    0.1541E-02
  (  3,  6, 10) (  3,  1,  1) (  3,  1,  5) (  3,  1,  9) (  3,  1,  5)
     0.8442E-03    0.1049E-02    0.7231E-03    0.4534E-03    0.3366E-03
  (  3,  1,  9) (  3,  1,  9) (  3,  1,  8) (  3,  1,  5) (  3,  1,  9)
     0.1728E-03    0.2086E-03    0.1518E-03    0.9883E-04    0.6638E-04
  (  3,  1,  9) (  3,  2,  9) (  3,  1,  5) (  3,  1,  9) (  3,  1,  4)
     0.3918E-04    0.4447E-04    0.3161E-04    0.1962E-04    0.1530E-04
  (  2,  7,  1) (  3,  1,  9) (  3,  1,  8) (  3,  1,  5) (  3,  1,  9)
     0.7525E-05
  (  3,  1,  5)


 OUTPUT CONTROL FOR STRESS PERIOD     11   TIME STEP     4
    SAVE HEAD FOR ALL LAYERS

 HEAD WILL BE SAVED ON UNIT   21 AT END OF TIME STEP     4 IN STRESS PERIOD     11
 
 SOLVING FOR HEAD 
    32 ITERATIONS FOR TIME STEP   5 IN STRESS PERIOD   11

 MAXIMUM HEAD CHANGE FOR EACH ITERATION:

    HEAD CHANGE   HEAD CHANGE   HEAD CHANGE   HEAD CHANGE   HEAD CHANGE
  LAYER,ROW,COL LAYER,ROW,COL LAYER,ROW,COL LAYER,ROW,COL LAYER,ROW,COL
 ----------------------------------------------------------------------
     0.9607         1.225         1.069        -1.240        -2.809    
  (  3,  1, 10) (  3,  1, 10) (  3,  2,  1) (  3,  1, 10) (  3,  1,  1)
     0.8132        0.4907        0.1411        0.7261E-01   -0.4928E-01
  (  3, 10,  1) (  3,  9,  3) (  2,  1,  8) (  2, 10,  1) (  2, 10, 10)
     0.7868E-01    0.1329E-01   -0.8322E-02   -0.4427E-02   -0.3018E-02
  (  2,  6,  1) (  2,  1,  2) (  3,  9,  5) (  3,  9,  4) (  3,  9,  3)
    -0.2628E-02   -0.2078E-02   -0.1551E-02   -0.8551E-03   -0.5529E-03
  (  2,  5,  1) (  3,  9,  3) (  3,  9,  3) (  3,  9,  5) (  3,  9,  3)
    -0.2417E-03   -0.3878E-03   -0.2968E-03   -0.1572E-03   -0.1100E-03
  (  3, 10, 10) (  3,  9,  2) (  3,  9,  4) (  3,  9,  4) (  3,  9,  4)
    -0.4601E-04   -0.7489E-04   -0.5542E-04   -0.3217E-04   -0.2062E-04
  (  3,  3,  6) (  3,  9,  4) (  3,  9,  3) (  3,  3,  6) (  3,  3,  6)
    -0.1195E-04   -0.9916E-05
  (  3,  3,  6) (  3,  3,  6)


 OUTPUT CONTROL FOR STRESS PERIOD     11   TIME STEP     5
    SAVE HEAD FOR ALL LAYERS

 HEAD WILL BE SAVED ON UNIT   21 AT END OF TIME STEP     5 IN STRESS PERIOD     11
 
 SOLVING FOR HEAD 
    32 ITERATIONS FOR TIME STEP   6 IN STRESS PERIOD   11

 MAXIMUM HEAD CHANGE FOR EACH ITERATION:

    HEAD CHANGE   HEAD CHANGE   HEAD CHANGE   HEAD CHANGE   HEAD CHANGE
  LAYER,ROW,COL LAYER,ROW,COL LAYER,ROW,COL LAYER,ROW,COL LAYER,ROW,COL
 ----------------------------------------------------------------------
     0.5871        0.7096        0.4630        -1.313        -1.080    
  (  3,  1, 10) (  3,  1, 10) (  3,  2,  1) (  3,  1, 10) (  3,  1,  1)
     0.4489        0.2489        0.6353E-01   -0.2155E-01   -0.2101E-01
  (  3,  1, 10) (  3,  2,  2) (  2,  1,  9) (  3,  2,  1) (  2,  1, 10)
     0.2058E-01   -0.1037E-01   -0.8546E-02   -0.4479E-02   -0.2769E-02
  (  2,  7,  1) (  3,  2,  7) (  3,  3,  6) (  3,  3,  6) (  3,  3,  6)
    -0.2323E-02   -0.1855E-02   -0.1572E-02   -0.8173E-03   -0.5335E-03
  (  2,  7,  1) (  3,  3,  6) (  3,  3,  6) (  3,  3,  6) (  3,  3,  6)
    -0.3443E-03   -0.3500E-03   -0.2912E-03   -0.1611E-03   -0.1036E-03
  (  2,  8,  1) (  3,  3,  6) (  3,  3,  6) (  3,  3,  6) (  3,  3,  6)
    -0.4568E-04   -0.6806E-04   -0.5788E-04   -0.3277E-04   -0.2161E-04
  (  3,  3,  6) (  3,  3,  6) (  3,  3,  6) (  3,  3,  6) (  3,  3,  6)
    -0.1023E-04   -0.7406E-05
  (  3,  3,  6) (  3,  3,  6)


 OUTPUT CONTROL FOR STRESS PERIOD     11   TIME STEP     6
    PRINT BUDGET
    PRINT HEAD FOR ALL LAYERS
    SAVE HEAD FOR ALL LAYERS
    SAVE DRAWDOWN FOR ALL LAYERS
1
              HEAD IN LAYER   1 AT END OF TIME STEP   6 IN STRESS PERIOD   11
  ---------------------------------------------------------------------------

           1       2       3       4       5       6       7       8       9      10
 ...................................................................................
   1    21.50   21.15   20.49   20.07   19.87   19.87   20.07   20.49   21.15   21.50
   2    20.47   19.97   19.55   19.25   19.10   19.10   19.25   19.54   19.96   20.47
   3    18.99   18.50   18.13   17.88   17.76   17.75   17.88   18.12   18.49   18.98
   4    16.97   16.53   16.23   16.04   15.95   15.95   16.04   16.23   16.52   16.96
   5    14.10   14.01   13.91   13.82   13.78   13.78   13.82   13.90   14.00   14.09
   6    11.54   11.51   11.48   11.44   11.42   11.42   11.44   11.47   11.51   11.54
   7     9.06    9.04    9.00    8.97    8.94    8.94    8.96    9.00    9.03    9.06
   8     6.64    6.58    6.49    6.40    6.34    6.34    6.40    6.49    6.58    6.63
   9     4.40    4.24    3.95    3.62    3.48    3.48    3.62    3.95    4.23    4.40
  10     2.78    2.38    1.50    0.00    0.00    0.00    0.00    1.50    2.38    2.78
1
              HEAD IN LAYER   2 AT END OF TIME STEP   6 IN STRESS PERIOD   11
  ---------------------------------------------------------------------------

           1       2       3       4       5       6       7       8       9      10
 ...................................................................................
   1     0.42    0.44    0.45    0.45    0.44    0.42    0.40    0.37    0.34    0.30
   2     0.28    1.59    1.36    0.88    0.40    0.03    0.07    0.40    0.70    0.10
   3     0.09    0.96    0.53   -0.27   -1.42   -2.98   -2.59   -1.26   -0.36   -0.14
   4    -0.15    0.49    0.14   -0.45   -1.19   -2.03   -1.88   -1.17   -0.59   -0.38
   5    -0.41    0.04   -0.10   -0.36   -0.64   -0.86   -0.88   -0.75   -0.60   -0.63
   6    -0.69   -0.40   -0.45   -0.56   -0.68   -0.76   -0.79   -0.78   -0.76   -0.88
   7    -0.98   -0.96   -1.00   -1.06   -1.12   -1.16   -1.17   -1.17   -1.15   -1.14
   8    -1.28   -1.65   -1.76   -1.83   -1.88   -1.90   -1.89   -1.85   -1.76   -1.39
   9    -1.56   -2.41   -2.66   -2.83   -2.91   -2.92   -2.86   -2.71   -2.47   -1.64
  10    -1.82   -1.87   -1.92   -1.96   -1.98   -1.98   -1.97   -1.94   -1.91   -1.86
1
              HEAD IN LAYER   3 AT END OF TIME STEP   6 IN STRESS PERIOD   11
  ---------------------------------------------------------------------------

           1       2       3       4       5       6       7       8       9      10
 ...................................................................................
   1   -15.89  -16.05  -16.35  -16.75  -17.17  -17.51  -17.66  -17.64  -17.56  -17.50
   2   -16.02  -16.27  -16.76  -17.48  -18.33  -19.09  -19.15  -18.74  -18.33  -18.10
   3   -15.92  -16.30  -17.11  -18.49  -20.70  -24.29  -23.42  -20.72  -19.25  -18.60
   4   -15.05  -15.36  -15.99  -16.99  -18.40  -20.26  -19.98  -18.63  -17.75  -17.32
   5   -13.65  -13.82  -14.14  -14.60  -15.12  -15.56  -15.64  -15.45  -15.23  -15.10
   6   -12.19  -12.27  -12.42  -12.61  -12.82  -12.98  -13.06  -13.07  -13.04  -13.01
   7   -10.94  -10.98  -11.05  -11.13  -11.22  -11.30  -11.35  -11.38  -11.39  -11.39
   8   -10.01  -10.03  -10.06  -10.10  -10.14  -10.18  -10.22  -10.24  -10.25  -10.25
   9    -9.40   -9.41   -9.43   -9.45   -9.47   -9.50   -9.51   -9.53   -9.54   -9.54
  10    -9.10   -9.10   -9.11   -9.13   -9.14   -9.16   -9.17   -9.18   -9.19   -9.19

 HEAD WILL BE SAVED ON UNIT   21 AT END OF TIME STEP     6 IN STRESS PERIOD     11

 DRAWDOWN WILL BE SAVED ON UNIT   22 AT END OF TIME STEP     6 IN STRESS PERIOD     11



  -------------------------------------------------------------------------------------
  VOLUMETRIC BUDGET FOR ENTIRE MODEL AT END OF TIME STEP    6 IN STRESS PERIOD     11
  -------------------------------------------------------------------------------------

     CUMULATIVE VOLUMES      L**3       RATES FOR THIS TIME STEP      L**3/T
     ------------------                 ------------------------

           IN:                                      IN:
           ---                                      ---
             STORAGE =    18749332.3274               STORAGE =        4392.6403
       CONSTANT HEAD =       66709.9750         CONSTANT HEAD =          47.3000
               WELLS =   109620000.0000                 WELLS =       30000.0000
    INST. IB STORAGE =    27465113.2670      INST. IB STORAGE =        5561.0960
    DELAY IB STORAGE =    55827328.0004      DELAY IB STORAGE =       16572.8929

            TOTAL IN =   211728483.5698              TOTAL IN =       56573.9292

          OUT:                                     OUT:
          ----                                     ----
             STORAGE =           0.0000               STORAGE =           0.0000
       CONSTANT HEAD =   102138481.9658         CONSTANT HEAD =       26573.9515
               WELLS =   109590000.0000                 WELLS =       30000.0000
    INST. IB STORAGE =       7.0580E-08      INST. IB STORAGE =       1.6812E-11
    DELAY IB STORAGE =       2.5499E-11      DELAY IB STORAGE =           0.0000

           TOTAL OUT =   211728481.9658             TOTAL OUT =       56573.9515

            IN - OUT =           1.6040              IN - OUT =      -2.2339E-02

 PERCENT DISCREPANCY =           0.00     PERCENT DISCREPANCY =          -0.00


          TIME SUMMARY AT END OF TIME STEP     6 IN STRESS PERIOD     11
                    SECONDS     MINUTES      HOURS       DAYS        YEARS
                    -----------------------------------------------------------
   TIME STEP LENGTH 9.18681E+06 1.53113E+05  2551.9      106.33     0.29111    
 STRESS PERIOD TIME 3.15619E+07 5.26032E+05  8767.2      365.30      1.0001    
         TOTAL TIME 3.15706E+08 5.26176E+06  87696.      3654.0      10.004    
 

                               VOLUMETRIC BUDGET FOR SYSTEMS OF DELAY INTERBEDS
                                          AT END OF TIME STEP  6 IN STRESS PERIOD 11

          |   C U M U L A T I V E   V O L U M E S   L**3           | R A T E S   F O R  T H I S  T I M E  S T E P   L**3/T  |
   SYSTEM |    CHANGE IN     BOUNDARY                    PERCENT   |    CHANGE IN     BOUNDARY                    PERCENT   |
   NUMBER |     STORAGE        FLOW           SUM      DISCREPANCY |     STORAGE        FLOW           SUM      DISCREPANCY |
  --------|--------------------------------------------------------|--------------------------------------------------------|
      1     45964.        -45964.       -0.72760E-11   -0.15830E-13     11.448        -11.448       -0.35527E-14   -0.31034E-13
      2    0.55781E+08   -0.55781E+08    0.74506E-08    0.13357E-13     16561.        -16561.         0.0000         0.0000    
  --------|--------------------------------------------------------|--------------------------------------------------------|
 TOTALS:    0.55827E+08   -0.55827E+08    0.74506E-08    0.13346E-13     16573.        -16573.         0.0000         0.0000    
1
                            STRESS PERIOD NO.     12, LENGTH =   365.3000    
                            -----------------------------------------------

                              NUMBER OF TIME STEPS =     6

                               MULTIPLIER FOR DELT =     1.300

                            INITIAL TIME STEP SIZE =   28.63744    

REUSING NON-PARAMETER WELLS FROM LAST STRESS PERIOD

14 WELLS
 
 SOLVING FOR HEAD 

    44 ITERATIONS FOR TIME STEP   1 IN STRESS PERIOD   12

 MAXIMUM HEAD CHANGE FOR EACH ITERATION:

    HEAD CHANGE   HEAD CHANGE   HEAD CHANGE   HEAD CHANGE   HEAD CHANGE
  LAYER,ROW,COL LAYER,ROW,COL LAYER,ROW,COL LAYER,ROW,COL LAYER,ROW,COL
 ----------------------------------------------------------------------
      2.956         3.405         2.347        -2.010        -3.083    
  (  3,  1, 10) (  3,  2,  8) (  3,  2,  1) (  3,  1, 10) (  3,  1,  1)
    -0.3044       -0.7299        -1.669        -1.077        0.8126    
  (  3,  1, 10) (  3,  1,  1) (  3,  1, 10) (  3,  1,  1) (  3,  1,  1)
    -0.7841E-01   -0.9559E-02   -0.5668E-02   -0.4865E-02   -0.1995E-02
  (  2,  7,  1) (  3,  3,  7) (  3,  3,  6) (  3,  3,  6) (  3,  1,  1)
    -0.2282E-02    0.6575E-03   -0.1101E-02    0.1379E-02    0.9602E-03
  (  3,  3,  6) (  3, 10,  8) (  3,  3,  6) (  3,  2, 10) (  3,  1,  5)
     0.1400E-02    0.1659E-02    0.1598E-02    0.2559E-02    0.1950E-02
  (  3,  1, 10) (  3,  1,  5) (  3, 10, 10) (  3,  3, 10) (  3,  2,  7)
     0.1299E-02    0.1234E-02    0.8936E-03    0.6374E-03    0.4789E-03
  (  3,  1,  5) (  3,  1,  5) (  3,  1,  5) (  3,  1,  5) (  3,  1,  5)
     0.3174E-03    0.3054E-03    0.2164E-03    0.1569E-03    0.1170E-03
  (  3,  1,  5) (  3,  1,  5) (  3,  1,  5) (  3,  1,  5) (  3,  1,  5)
     0.7905E-04    0.7385E-04    0.5363E-04    0.3844E-04    0.2895E-04
  (  3,  1,  5) (  3,  1,  5) (  3,  1,  5) (  3,  1,  5) (  3,  1,  5)
     0.1943E-04    0.1837E-04    0.1310E-04    0.9286E-05
  (  3,  1,  5) (  3,  1,  5) (  3,  1,  5) (  3,  1,  5)


 OUTPUT CONTROL FOR STRESS PERIOD     12   TIME STEP     1
    SAVE HEAD FOR ALL LAYERS

 HEAD WILL BE SAVED ON UNIT   21 AT END OF TIME STEP     1 IN STRESS PERIOD     12
 
 SOLVING FOR HEAD 
    42 ITERATIONS FOR TIME STEP   2 IN STRESS PERIOD   12

 MAXIMUM HEAD CHANGE FOR EACH ITERATION:

    HEAD CHANGE   HEAD CHANGE   HEAD CHANGE   HEAD CHANGE   HEAD CHANGE
  LAYER,ROW,COL LAYER,ROW,COL LAYER,ROW,COL LAYER,ROW,COL LAYER,ROW,COL
 ----------------------------------------------------------------------
      2.390         2.885         2.323        -1.627        -3.256    
  (  3,  1, 10) (  3,  1, 10) (  3,  2,  1) (  3,  1, 10) (  3,  1,  1)
    -0.2436       -0.5966        -1.492        0.3164        0.3347E-01
  (  3,  1, 10) (  3,  1,  1) (  3,  1, 10) (  3, 10,  1) (  2, 10,  1)
    -0.6662E-01   -0.8690E-02   -0.4908E-02   -0.1842E-02   -0.2484E-02
  (  2,  7,  1) (  2,  1,  2) (  3,  3,  7) (  3,  3,  7) (  3,  3,  6)
     0.1362E-02    0.1038E-02    0.2721E-02    0.1465E-02    0.3134E-02
  (  3, 10, 10) (  3,  9,  7) (  3,  1, 10) (  3,  6,  6) (  3,  1,  1)
     0.1457E-02    0.2909E-02    0.2544E-02    0.1845E-02    0.1341E-02
  (  3, 10, 10) (  3,  2,  2) (  3,  2,  8) (  3,  1, 10) (  3,  1, 10)
     0.8932E-03    0.8843E-03    0.6200E-03    0.4163E-03    0.3113E-03
  (  3,  1, 10) (  3,  2,  8) (  3,  1, 10) (  3,  1, 10) (  3,  1, 10)
     0.1904E-03    0.2068E-03    0.1386E-03    0.9790E-04    0.7097E-04
  (  3,  1, 10) (  3,  1, 10) (  3,  2,  8) (  3,  1, 10) (  3,  1, 10)
     0.4753E-04    0.4651E-04    0.3290E-04    0.2209E-04    0.1658E-04
  (  3,  1, 10) (  3,  2,  8) (  3,  1, 10) (  3,  1, 10) (  3,  1, 10)
     0.1017E-04    0.6295E-05
  (  3,  1, 10) (  3,  1, 10)


 OUTPUT CONTROL FOR STRESS PERIOD     12   TIME STEP     2
    SAVE HEAD FOR ALL LAYERS

 HEAD WILL BE SAVED ON UNIT   21 AT END OF TIME STEP     2 IN STRESS PERIOD     12
 
 SOLVING FOR HEAD 
    40 ITERATIONS FOR TIME STEP   3 IN STRESS PERIOD   12

 MAXIMUM HEAD CHANGE FOR EACH ITERATION:

    HEAD CHANGE   HEAD CHANGE   HEAD CHANGE   HEAD CHANGE   HEAD CHANGE
  LAYER,ROW,COL LAYER,ROW,COL LAYER,ROW,COL LAYER,ROW,COL LAYER,ROW,COL
 ----------------------------------------------------------------------
      1.853         2.324         2.052        -1.392        -3.277    
  (  3,  1, 10) (  3,  1, 10) (  3,  2,  1) (  3,  1, 10) (  3,  1,  1)
     0.1979       -0.4177        -1.118        0.5646        0.1268    
  (  2,  5,  1) (  3,  1,  1) (  3,  1, 10) (  3,  1, 10) (  2, 10, 10)
    -0.6061E-01   -0.1173E-01   -0.7322E-02   -0.3068E-02   -0.2142E-02
  (  2, 10, 10) (  2,  1,  2) (  3,  3,  7) (  3,  4,  6) (  3,  3,  7)
     0.7509E-03    0.1731E-02    0.1983E-02    0.2800E-02    0.3424E-02
  (  3, 10,  1) (  3,  6,  1) (  3, 10,  1) (  3,  5,  1) (  3,  1, 10)
     0.2265E-02    0.2453E-02    0.1794E-02    0.1138E-02    0.8350E-03
  (  3,  1,  1) (  3,  2,  1) (  3,  1,  1) (  3,  1,  1) (  3,  1,  1)
     0.5074E-03    0.5661E-03    0.3660E-03    0.2578E-03    0.1873E-03
  (  3,  1,  1) (  3,  1,  1) (  3,  1,  1) (  3,  1,  1) (  3,  1,  1)
     0.1180E-03    0.1197E-03    0.8835E-04    0.5623E-04    0.4164E-04
  (  3,  1,  1) (  3,  2,  1) (  3,  1,  1) (  3,  1,  1) (  3,  1,  1)
     0.2646E-04    0.2801E-04    0.1814E-04    0.1297E-04    0.8630E-05
  (  3,  1,  1) (  3,  1,  1) (  3,  1,  1) (  3,  1,  1) (  3,  1,  1)


 OUTPUT CONTROL FOR STRESS PERIOD     12   TIME STEP     3
    SAVE HEAD FOR ALL LAYERS

 HEAD WILL BE SAVED ON UNIT   21 AT END OF TIME STEP     3 IN STRESS PERIOD     12
 
 SOLVING FOR HEAD 
    36 ITERATIONS FOR TIME STEP   4 IN STRESS PERIOD   12

 MAXIMUM HEAD CHANGE FOR EACH ITERATION:

    HEAD CHANGE   HEAD CHANGE   HEAD CHANGE   HEAD CHANGE   HEAD CHANGE
  LAYER,ROW,COL LAYER,ROW,COL LAYER,ROW,COL LAYER,ROW,COL LAYER,ROW,COL
 ----------------------------------------------------------------------
      1.365         1.743         1.590        -1.222        -3.130    
  (  3,  1, 10) (  3,  1, 10) (  3,  2,  1) (  3,  1, 10) (  3,  1,  1)
     0.3343        0.1405       -0.2397E-01   -0.1994E-01   -0.1590E-01
  (  3, 10, 10) (  3,  9,  6) (  3,  3,  7) (  3,  2,  6) (  3,  3,  7)
    -0.6359E-02   -0.9975E-02   -0.4132E-02   -0.3487E-02    0.2548E-02
  (  3,  1, 10) (  3,  3,  7) (  3,  4,  6) (  3,  3,  7) (  3,  1,  1)
     0.1791E-02    0.3946E-02    0.3273E-02    0.2115E-02    0.1485E-02
  (  3,  7, 10) (  3,  1, 10) (  3,  1,  6) (  3,  1,  8) (  3,  1,  1)
     0.7885E-03    0.9953E-03    0.6990E-03    0.4340E-03    0.3117E-03
  (  3,  1,  1) (  3,  2,  2) (  3,  1,  1) (  3,  1,  6) (  3,  1,  8)
     0.1651E-03    0.2043E-03    0.1458E-03    0.9136E-04    0.6303E-04
  (  3,  1,  6) (  3,  1,  1) (  3,  1,  6) (  3,  1,  8) (  3,  1,  6)
     0.3750E-04    0.4167E-04    0.2971E-04    0.1872E-04    0.1387E-04
  (  2,  7,  1) (  3,  1,  7) (  3,  1,  7) (  3,  1,  6) (  3,  1,  8)
     0.7145E-05
  (  3,  1,  6)


 OUTPUT CONTROL FOR STRESS PERIOD     12   TIME STEP     4
    SAVE HEAD FOR ALL LAYERS

 HEAD WILL BE SAVED ON UNIT   21 AT END OF TIME STEP     4 IN STRESS PERIOD     12
 
 SOLVING FOR HEAD 
    31 ITERATIONS FOR TIME STEP   5 IN STRESS PERIOD   12

 MAXIMUM HEAD CHANGE FOR EACH ITERATION:

    HEAD CHANGE   HEAD CHANGE   HEAD CHANGE   HEAD CHANGE   HEAD CHANGE
  LAYER,ROW,COL LAYER,ROW,COL LAYER,ROW,COL LAYER,ROW,COL LAYER,ROW,COL
 ----------------------------------------------------------------------
     0.9376         1.189         1.059        -1.190        -2.789    
  (  3,  1, 10) (  3,  1, 10) (  3,  2,  1) (  3,  1, 10) (  3,  1,  1)
     0.7967        0.4781        0.1398        0.7226E-01   -0.4898E-01
  (  3, 10,  1) (  3,  9,  3) (  2,  1,  8) (  2, 10,  1) (  2, 10, 10)
     0.7825E-01    0.1315E-01   -0.7867E-02   -0.4218E-02   -0.2848E-02
  (  2,  6,  1) (  2,  1,  2) (  3,  9,  4) (  3,  9,  4) (  3,  9,  3)
    -0.2550E-02   -0.1971E-02   -0.1473E-02   -0.8021E-03   -0.5266E-03
  (  2,  6,  1) (  3,  9,  3) (  3,  9,  3) (  3,  9,  4) (  3,  9,  4)
    -0.2194E-03   -0.3666E-03   -0.2787E-03   -0.1497E-03   -0.1025E-03
  (  3,  9,  1) (  3,  9,  2) (  3,  9,  4) (  3,  9,  4) (  3,  9,  3)
    -0.4107E-04   -0.7061E-04   -0.5245E-04   -0.2936E-04   -0.1921E-04
  (  3,  3,  6) (  3,  9,  4) (  3,  9,  3) (  3,  9,  4) (  3,  9,  4)
    -0.9763E-05
  (  3,  3,  6)


 OUTPUT CONTROL FOR STRESS PERIOD     12   TIME STEP     5
    SAVE HEAD FOR ALL LAYERS

 HEAD WILL BE SAVED ON UNIT   21 AT END OF TIME STEP     5 IN STRESS PERIOD     12
 
 SOLVING FOR HEAD 
    31 ITERATIONS FOR TIME STEP   6 IN STRESS PERIOD   12

 MAXIMUM HEAD CHANGE FOR EACH ITERATION:

    HEAD CHANGE   HEAD CHANGE   HEAD CHANGE   HEAD CHANGE   HEAD CHANGE
  LAYER,ROW,COL LAYER,ROW,COL LAYER,ROW,COL LAYER,ROW,COL LAYER,ROW,COL
 ----------------------------------------------------------------------
     0.5733        0.6882        0.4617        -1.273        -1.076    
  (  3,  1, 10) (  3,  1, 10) (  3,  2,  1) (  3,  1, 10) (  3,  1,  1)
     0.4425        0.2452        0.6280E-01   -0.2111E-01   -0.2056E-01
  (  3,  1, 10) (  3,  2,  2) (  2,  1,  9) (  3,  2,  1) (  2,  1, 10)
     0.2054E-01   -0.9993E-02   -0.8162E-02   -0.4241E-02   -0.2621E-02
  (  2,  7,  1) (  3,  2,  7) (  3,  3,  6) (  3,  3,  6) (  3,  3,  6)
    -0.2268E-02   -0.1753E-02   -0.1486E-02   -0.7694E-03   -0.4977E-03
  (  2,  7,  1) (  3,  3,  6) (  3,  3,  6) (  3,  3,  6) (  3,  3,  6)
    -0.3391E-03   -0.3279E-03   -0.2735E-03   -0.1491E-03   -0.9567E-04
  (  2,  8,  1) (  3,  3,  6) (  3,  3,  6) (  3,  3,  6) (  3,  3,  6)
    -0.4103E-04   -0.6297E-04   -0.5339E-04   -0.2985E-04   -0.1957E-04
  (  3,  3,  6) (  3,  3,  6) (  3,  3,  6) (  3,  3,  6) (  3,  3,  6)
    -0.9282E-05
  (  2,  8,  1)


 OUTPUT CONTROL FOR STRESS PERIOD     12   TIME STEP     6
    PRINT BUDGET
    PRINT HEAD FOR ALL LAYERS
    SAVE HEAD FOR ALL LAYERS
    SAVE DRAWDOWN FOR ALL LAYERS
1
              HEAD IN LAYER   1 AT END OF TIME STEP   6 IN STRESS PERIOD   12
  ---------------------------------------------------------------------------

           1       2       3       4       5       6       7       8       9      10
 ...................................................................................
   1    21.39   21.04   20.38   19.96   19.76   19.75   19.96   20.37   21.04   21.38
   2    20.36   19.86   19.44   19.14   18.99   18.99   19.14   19.43   19.85   20.35
   3    18.88   18.39   18.02   17.77   17.65   17.65   17.77   18.01   18.38   18.87
   4    16.87   16.43   16.13   15.94   15.85   15.85   15.94   16.12   16.42   16.86
   5    14.00   13.91   13.81   13.73   13.69   13.68   13.73   13.81   13.91   13.99
   6    11.46   11.43   11.39   11.36   11.33   11.33   11.35   11.39   11.43   11.45
   7     8.99    8.97    8.93    8.90    8.87    8.87    8.90    8.93    8.97    8.99
   8     6.58    6.53    6.44    6.35    6.29    6.29    6.34    6.44    6.53    6.58
   9     4.36    4.20    3.91    3.59    3.45    3.45    3.59    3.91    4.20    4.36
  10     2.76    2.36    1.49    0.00    0.00    0.00    0.00    1.49    2.36    2.76
1
              HEAD IN LAYER   2 AT END OF TIME STEP   6 IN STRESS PERIOD   12
  ---------------------------------------------------------------------------

           1       2       3       4       5       6       7       8       9      10
 ...................................................................................
   1     0.07    0.09    0.09    0.09    0.08    0.06    0.04    0.02   -0.01   -0.05
   2    -0.07    1.20    0.96    0.48   -0.01   -0.37   -0.34   -0.01    0.29   -0.25
   3    -0.25    0.58    0.14   -0.66   -1.82   -3.38   -2.98   -1.66   -0.75   -0.48
   4    -0.47    0.13   -0.22   -0.81   -1.56   -2.40   -2.25   -1.54   -0.95   -0.71
   5    -0.73   -0.29   -0.43   -0.70   -0.98   -1.20   -1.22   -1.09   -0.94   -0.95
   6    -1.00   -0.70   -0.75   -0.87   -0.98   -1.06   -1.10   -1.08   -1.07   -1.19
   7    -1.28   -1.23   -1.27   -1.33   -1.39   -1.43   -1.44   -1.44   -1.43   -1.43
   8    -1.56   -1.89   -2.00   -2.07   -2.12   -2.14   -2.13   -2.09   -2.01   -1.68
   9    -1.83   -2.63   -2.88   -3.04   -3.12   -3.13   -3.08   -2.93   -2.70   -1.91
  10    -2.08   -2.13   -2.18   -2.22   -2.24   -2.24   -2.23   -2.21   -2.17   -2.12
1
              HEAD IN LAYER   3 AT END OF TIME STEP   6 IN STRESS PERIOD   12
  ---------------------------------------------------------------------------

           1       2       3       4       5       6       7       8       9      10
 ...................................................................................
   1   -16.59  -16.75  -17.06  -17.46  -17.88  -18.22  -18.37  -18.36  -18.28  -18.22
   2   -16.70  -16.96  -17.46  -18.17  -19.03  -19.79  -19.86  -19.45  -19.04  -18.81
   3   -16.58  -16.96  -17.78  -19.16  -21.38  -24.97  -24.11  -21.41  -19.94  -19.28
   4   -15.67  -15.98  -16.62  -17.62  -19.04  -20.90  -20.62  -19.27  -18.39  -17.97
   5   -14.22  -14.39  -14.72  -15.18  -15.70  -16.15  -16.23  -16.04  -15.82  -15.69
   6   -12.71  -12.79  -12.94  -13.13  -13.34  -13.51  -13.59  -13.60  -13.57  -13.54
   7   -11.41  -11.45  -11.52  -11.60  -11.69  -11.77  -11.83  -11.85  -11.87  -11.87
   8   -10.43  -10.45  -10.48  -10.53  -10.57  -10.61  -10.64  -10.67  -10.68  -10.68
   9    -9.79   -9.80   -9.82   -9.84   -9.87   -9.89   -9.91   -9.92   -9.93   -9.94
  10    -9.47   -9.48   -9.49   -9.51   -9.52   -9.54   -9.55   -9.56   -9.57   -9.57

 HEAD WILL BE SAVED ON UNIT   21 AT END OF TIME STEP     6 IN STRESS PERIOD     12

 DRAWDOWN WILL BE SAVED ON UNIT   22 AT END OF TIME STEP     6 IN STRESS PERIOD     12



  -------------------------------------------------------------------------------------
  VOLUMETRIC BUDGET FOR ENTIRE MODEL AT END OF TIME STEP    6 IN STRESS PERIOD     12
  -------------------------------------------------------------------------------------

     CUMULATIVE VOLUMES      L**3       RATES FOR THIS TIME STEP      L**3/T
     ------------------                 ------------------------

           IN:                                      IN:
           ---                                      ---
             STORAGE =    20331824.2394               STORAGE =        4292.3749
       CONSTANT HEAD =       85356.8851         CONSTANT HEAD =          53.5538
               WELLS =   120579000.0000                 WELLS =       30000.0000
    INST. IB STORAGE =    29485123.8090      INST. IB STORAGE =        5505.7671
    DELAY IB STORAGE =    61861885.8381      DELAY IB STORAGE =       16486.5783

            TOTAL IN =   232343190.7715              TOTAL IN =       56338.2741

          OUT:                                     OUT:
          ----                                     ----
             STORAGE =           0.0000               STORAGE =           0.0000
       CONSTANT HEAD =   111794206.7084         CONSTANT HEAD =       26338.3376
               WELLS =   120549000.0000                 WELLS =       30000.0000
    INST. IB STORAGE =       8.0690E-08      INST. IB STORAGE =       1.4601E-11
    DELAY IB STORAGE =       4.5015E-11      DELAY IB STORAGE =           0.0000

           TOTAL OUT =   232343206.7084             TOTAL OUT =       56338.3376

            IN - OUT =         -15.9369              IN - OUT =      -6.3546E-02

 PERCENT DISCREPANCY =          -0.00     PERCENT DISCREPANCY =          -0.00


          TIME SUMMARY AT END OF TIME STEP     6 IN STRESS PERIOD     12
                    SECONDS     MINUTES      HOURS       DAYS        YEARS
                    -----------------------------------------------------------
   TIME STEP LENGTH 9.18681E+06 1.53113E+05  2551.9      106.33     0.29111    
 STRESS PERIOD TIME 3.15619E+07 5.26032E+05  8767.2      365.30      1.0001    
         TOTAL TIME 3.47268E+08 5.78779E+06  96463.      4019.3      11.004    
 

                               VOLUMETRIC BUDGET FOR SYSTEMS OF DELAY INTERBEDS
                                          AT END OF TIME STEP  6 IN STRESS PERIOD 12

          |   C U M U L A T I V E   V O L U M E S   L**3           | R A T E S   F O R  T H I S  T I M E  S T E P   L**3/T  |
   SYSTEM |    CHANGE IN     BOUNDARY                    PERCENT   |    CHANGE IN     BOUNDARY                    PERCENT   |
   NUMBER |     STORAGE        FLOW           SUM      DISCREPANCY |     STORAGE        FLOW           SUM      DISCREPANCY |
  --------|--------------------------------------------------------|--------------------------------------------------------|
      1     50155.        -50155.       -0.72760E-11   -0.14507E-13     11.185        -11.185        0.88818E-14    0.79405E-13
      2    0.61812E+08   -0.61812E+08    0.74506E-08    0.12054E-13     16475.        -16475.         0.0000         0.0000    
  --------|--------------------------------------------------------|--------------------------------------------------------|
 TOTALS:    0.61862E+08   -0.61862E+08    0.74506E-08    0.12044E-13     16487.        -16487.         0.0000         0.0000    
1
                            STRESS PERIOD NO.     13, LENGTH =   365.3000    
                            -----------------------------------------------

                              NUMBER OF TIME STEPS =     6

                               MULTIPLIER FOR DELT =     1.300

                            INITIAL TIME STEP SIZE =   28.63744    

REUSING NON-PARAMETER WELLS FROM LAST STRESS PERIOD

14 WELLS
 
 SOLVING FOR HEAD 

    45 ITERATIONS FOR TIME STEP   1 IN STRESS PERIOD   13

 MAXIMUM HEAD CHANGE FOR EACH ITERATION:

    HEAD CHANGE   HEAD CHANGE   HEAD CHANGE   HEAD CHANGE   HEAD CHANGE
  LAYER,ROW,COL LAYER,ROW,COL LAYER,ROW,COL LAYER,ROW,COL LAYER,ROW,COL
 ----------------------------------------------------------------------
      2.879         3.309         2.312        -1.935        -3.032    
  (  3,  1, 10) (  3,  2,  8) (  3,  2,  1) (  3,  1, 10) (  3,  1,  1)
    -0.2963       -0.7157        -1.631        -1.071        0.8061    
  (  3,  1, 10) (  3,  1,  1) (  3,  1, 10) (  3,  2,  1) (  3,  1,  1)
    -0.7802E-01   -0.8571E-02   -0.5467E-02   -0.4425E-02   -0.2080E-02
  (  2,  7,  1) (  3,  3,  7) (  3,  3,  6) (  3,  3,  6) (  3,  1,  1)
    -0.1984E-02    0.8190E-03   -0.8891E-03    0.1328E-02    0.9812E-03
  (  3,  3,  6) (  3, 10, 10) (  3,  3,  6) (  3,  1,  3) (  3,  1,  7)
     0.1474E-02    0.1608E-02    0.1473E-02    0.2542E-02    0.2123E-02
  (  3,  1,  3) (  3,  1,  7) (  3,  8,  2) (  3,  3, 10) (  3,  1,  8)
     0.1447E-02    0.1310E-02    0.9685E-03    0.6843E-03    0.5235E-03
  (  3,  1,  8) (  3,  1,  8) (  3,  1,  8) (  3,  1,  8) (  3,  1,  8)
     0.3464E-03    0.3315E-03    0.2310E-03    0.1720E-03    0.1266E-03
  (  3,  1,  8) (  3,  1,  8) (  3,  1,  8) (  3,  1,  8) (  3,  1,  9)
     0.8826E-04    0.7891E-04    0.5865E-04    0.4150E-04    0.3193E-04
  (  3,  1,  8) (  3,  1,  8) (  3,  1,  8) (  3,  1,  9) (  3,  1,  8)
     0.2128E-04    0.2009E-04    0.1404E-04    0.1023E-04    0.4305E-05
  (  3,  1,  8) (  3,  1,  8) (  3,  1,  8) (  3,  1,  8) (  3,  1,  8)


 OUTPUT CONTROL FOR STRESS PERIOD     13   TIME STEP     1
    SAVE HEAD FOR ALL LAYERS

 HEAD WILL BE SAVED ON UNIT   21 AT END OF TIME STEP     1 IN STRESS PERIOD     13
 
 SOLVING FOR HEAD 
    42 ITERATIONS FOR TIME STEP   2 IN STRESS PERIOD   13

 MAXIMUM HEAD CHANGE FOR EACH ITERATION:

    HEAD CHANGE   HEAD CHANGE   HEAD CHANGE   HEAD CHANGE   HEAD CHANGE
  LAYER,ROW,COL LAYER,ROW,COL LAYER,ROW,COL LAYER,ROW,COL LAYER,ROW,COL
 ----------------------------------------------------------------------
      2.328         2.800         2.290        -1.560        -3.207    
  (  3,  1, 10) (  3,  1, 10) (  3,  2,  1) (  3,  1, 10) (  3,  1,  1)
    -0.2370       -0.5848        -1.458        0.3055        0.3229E-01
  (  3,  1, 10) (  3,  1,  1) (  3,  1, 10) (  3, 10,  1) (  2, 10,  1)
    -0.6518E-01   -0.9077E-02   -0.3935E-02   -0.1817E-02   -0.2363E-02
  (  2,  7,  1) (  2,  1,  2) (  3,  3,  7) (  3,  3,  7) (  3,  3,  7)
     0.1405E-02    0.9410E-03    0.2465E-02    0.1309E-02    0.2926E-02
  (  3, 10,  1) (  3,  9,  3) (  3,  2,  1) (  3, 10, 10) (  3,  2,  1)
     0.1598E-02    0.2845E-02    0.2527E-02    0.1968E-02    0.1454E-02
  (  3,  1,  5) (  3,  2,  2) (  3,  1,  1) (  3,  1,  5) (  3,  1,  6)
     0.9220E-03    0.9200E-03    0.6709E-03    0.4605E-03    0.3433E-03
  (  3,  1,  5) (  3,  1,  6) (  3,  1,  5) (  3,  1,  6) (  3,  1,  5)
     0.2145E-03    0.2194E-03    0.1542E-03    0.1094E-03    0.8022E-04
  (  3,  1,  6) (  3,  1,  5) (  3,  1,  6) (  3,  1,  5) (  3,  1,  6)
     0.5184E-04    0.5042E-04    0.3706E-04    0.2563E-04    0.1925E-04
  (  3,  1,  5) (  3,  1,  6) (  3,  1,  5) (  3,  1,  6) (  3,  1,  5)
     0.1224E-04    0.8725E-05
  (  3,  1,  6) (  3,  1,  6)


 OUTPUT CONTROL FOR STRESS PERIOD     13   TIME STEP     2
    SAVE HEAD FOR ALL LAYERS

 HEAD WILL BE SAVED ON UNIT   21 AT END OF TIME STEP     2 IN STRESS PERIOD     13
 
 SOLVING FOR HEAD 
    40 ITERATIONS FOR TIME STEP   3 IN STRESS PERIOD   13

 MAXIMUM HEAD CHANGE FOR EACH ITERATION:

    HEAD CHANGE   HEAD CHANGE   HEAD CHANGE   HEAD CHANGE   HEAD CHANGE
  LAYER,ROW,COL LAYER,ROW,COL LAYER,ROW,COL LAYER,ROW,COL LAYER,ROW,COL
 ----------------------------------------------------------------------
      1.805         2.255         2.024        -1.333        -3.233    
  (  3,  1, 10) (  3,  1, 10) (  3,  2,  1) (  3,  1, 10) (  3,  1,  1)
     0.1965       -0.4096        -1.093        0.5554        0.1080    
  (  2,  5,  1) (  3,  1,  1) (  3,  1, 10) (  3,  1, 10) (  2, 10, 10)
    -0.4820E-01   -0.1116E-01   -0.6884E-02   -0.2938E-02   -0.2079E-02
  (  2, 10, 10) (  2,  1,  2) (  3,  3,  7) (  3,  4,  6) (  3,  3,  7)
     0.5831E-03    0.1612E-02    0.1836E-02    0.2620E-02    0.3366E-02
  (  3, 10,  1) (  3,  7, 10) (  3,  1,  1) (  3,  5,  3) (  3,  1, 10)
     0.1971E-02    0.2297E-02    0.1561E-02    0.1023E-02    0.7325E-03
  (  3,  1,  1) (  3,  1, 10) (  3,  1,  1) (  3,  1, 10) (  3,  1, 10)
     0.4547E-03    0.4881E-03    0.3418E-03    0.2191E-03    0.1588E-03
  (  3,  1, 10) (  3,  1,  1) (  3,  1,  9) (  3,  1,  9) (  3,  1, 10)
     0.9256E-04    0.1079E-03    0.7301E-04    0.4808E-04    0.3464E-04
  (  3,  1,  1) (  3,  1, 10) (  3,  1,  1) (  3,  1, 10) (  3,  1, 10)
     0.2143E-04    0.2287E-04    0.1604E-04    0.1033E-04    0.5258E-05
  (  3,  1, 10) (  3,  1,  1) (  3,  1,  9) (  3,  1,  9) (  3,  1, 10)


 OUTPUT CONTROL FOR STRESS PERIOD     13   TIME STEP     3
    SAVE HEAD FOR ALL LAYERS

 HEAD WILL BE SAVED ON UNIT   21 AT END OF TIME STEP     3 IN STRESS PERIOD     13
 
 SOLVING FOR HEAD 
    36 ITERATIONS FOR TIME STEP   4 IN STRESS PERIOD   13

 MAXIMUM HEAD CHANGE FOR EACH ITERATION:

    HEAD CHANGE   HEAD CHANGE   HEAD CHANGE   HEAD CHANGE   HEAD CHANGE
  LAYER,ROW,COL LAYER,ROW,COL LAYER,ROW,COL LAYER,ROW,COL LAYER,ROW,COL
 ----------------------------------------------------------------------
      1.330         1.691         1.569        -1.170        -3.097    
  (  3,  1, 10) (  3,  1, 10) (  3,  2,  1) (  3,  1, 10) (  3,  1,  1)
     0.3162        0.1318       -0.2187E-01   -0.1928E-01   -0.1496E-01
  (  3, 10, 10) (  3,  9,  6) (  3,  3,  7) (  3,  2,  6) (  3,  3,  6)
    -0.6221E-02   -0.9451E-02   -0.4181E-02   -0.3218E-02    0.2478E-02
  (  3,  1, 10) (  3,  3,  7) (  3,  3,  6) (  3,  3,  7) (  3,  1,  1)
     0.1778E-02    0.3841E-02    0.3178E-02    0.2032E-02    0.1448E-02
  (  3,  7, 10) (  3,  1, 10) (  3,  1,  6) (  3,  1,  7) (  3,  1,  1)
     0.7813E-03    0.9673E-03    0.6892E-03    0.4165E-03    0.2957E-03
  (  3,  1,  1) (  3,  2,  2) (  3,  1,  1) (  3,  1,  6) (  3,  1,  7)
     0.1597E-03    0.2006E-03    0.1403E-03    0.8647E-04    0.6137E-04
  (  3,  1, 10) (  3,  1,  1) (  3,  1,  6) (  3,  1,  7) (  3,  1,  1)
     0.3587E-04    0.4026E-04    0.2874E-04    0.1778E-04    0.1291E-04
  (  2,  7,  1) (  3,  2,  2) (  3,  1,  1) (  3,  1,  6) (  3,  1,  7)
     0.6858E-05
  (  3,  1,  6)


 OUTPUT CONTROL FOR STRESS PERIOD     13   TIME STEP     4
    SAVE HEAD FOR ALL LAYERS

 HEAD WILL BE SAVED ON UNIT   21 AT END OF TIME STEP     4 IN STRESS PERIOD     13
 
 SOLVING FOR HEAD 
    31 ITERATIONS FOR TIME STEP   5 IN STRESS PERIOD   13

 MAXIMUM HEAD CHANGE FOR EACH ITERATION:

    HEAD CHANGE   HEAD CHANGE   HEAD CHANGE   HEAD CHANGE   HEAD CHANGE
  LAYER,ROW,COL LAYER,ROW,COL LAYER,ROW,COL LAYER,ROW,COL LAYER,ROW,COL
 ----------------------------------------------------------------------
     0.9133         1.153         1.046        -1.148        -2.761    
  (  3,  1, 10) (  3,  1, 10) (  3,  2,  1) (  3,  1, 10) (  3,  1,  1)
     0.7834        0.4676        0.1391        0.7200E-01   -0.4868E-01
  (  3, 10,  1) (  3,  9,  3) (  2,  1,  8) (  2, 10,  1) (  2, 10, 10)
     0.7798E-01    0.1324E-01   -0.7555E-02   -0.4043E-02   -0.2722E-02
  (  2,  6,  1) (  2,  1,  2) (  3,  8,  4) (  3,  9,  4) (  3,  9,  3)
    -0.2487E-02   -0.1883E-02   -0.1411E-02   -0.7660E-03   -0.5043E-03
  (  2,  6,  1) (  3,  9,  3) (  3,  9,  3) (  3,  9,  4) (  3,  9,  4)
    -0.2077E-03   -0.3504E-03   -0.2661E-03   -0.1435E-03   -0.9745E-04
  (  3,  9,  1) (  3,  9,  2) (  3,  9,  4) (  3,  9,  5) (  3,  9,  3)
    -0.4052E-04   -0.6721E-04   -0.5018E-04   -0.2786E-04   -0.1877E-04
  (  3,  8,  7) (  3,  9,  4) (  3,  9,  4) (  3,  9,  4) (  3,  8,  7)
    -0.8668E-05
  (  3,  3,  6)


 OUTPUT CONTROL FOR STRESS PERIOD     13   TIME STEP     5
    SAVE HEAD FOR ALL LAYERS

 HEAD WILL BE SAVED ON UNIT   21 AT END OF TIME STEP     5 IN STRESS PERIOD     13
 
 SOLVING FOR HEAD 
    32 ITERATIONS FOR TIME STEP   6 IN STRESS PERIOD   13

 MAXIMUM HEAD CHANGE FOR EACH ITERATION:

    HEAD CHANGE   HEAD CHANGE   HEAD CHANGE   HEAD CHANGE   HEAD CHANGE
  LAYER,ROW,COL LAYER,ROW,COL LAYER,ROW,COL LAYER,ROW,COL LAYER,ROW,COL
 ----------------------------------------------------------------------
     0.5584        0.6666        0.4572        -1.236        -1.197    
  (  3,  1, 10) (  3,  1, 10) (  3,  2,  1) (  3,  1, 10) (  3,  1,  1)
     0.5211        0.3069        0.8392E-01    0.2798E-01   -0.2665E-01
  (  3,  1, 10) (  3,  2,  2) (  2,  1,  9) (  2, 10,  1) (  2, 10, 10)
     0.2669E-01   -0.1199E-01   -0.9921E-02   -0.5082E-02   -0.3108E-02
  (  2,  7,  1) (  3,  2,  7) (  3,  3,  6) (  3,  3,  6) (  3,  3,  6)
    -0.2587E-02   -0.2075E-02   -0.1769E-02   -0.8978E-03   -0.5731E-03
  (  2,  7,  1) (  3,  3,  6) (  3,  3,  6) (  3,  3,  6) (  3,  3,  6)
    -0.4071E-03   -0.3775E-03   -0.3166E-03   -0.1684E-03   -0.1060E-03
  (  2,  8,  1) (  3,  3,  6) (  3,  3,  6) (  3,  3,  6) (  3,  3,  6)
    -0.4257E-04   -0.7010E-04   -0.5965E-04   -0.3204E-04   -0.2094E-04
  (  2,  8,  1) (  3,  3,  6) (  3,  3,  6) (  3,  3,  6) (  3,  3,  6)
    -0.1144E-04   -0.4101E-05
  (  2,  8,  1) (  3,  3,  6)


 OUTPUT CONTROL FOR STRESS PERIOD     13   TIME STEP     6
    PRINT BUDGET
    PRINT HEAD FOR ALL LAYERS
    SAVE HEAD FOR ALL LAYERS
    SAVE DRAWDOWN FOR ALL LAYERS
1
              HEAD IN LAYER   1 AT END OF TIME STEP   6 IN STRESS PERIOD   13
  ---------------------------------------------------------------------------

           1       2       3       4       5       6       7       8       9      10
 ...................................................................................
   1    21.28   20.93   20.27   19.85   19.65   19.64   19.85   20.26   20.93   21.28
   2    20.26   19.75   19.33   19.03   18.88   18.88   19.03   19.32   19.75   20.25
   3    18.78   18.29   17.92   17.67   17.54   17.54   17.66   17.91   18.27   18.77
   4    16.77   16.33   16.03   15.84   15.75   15.75   15.84   16.03   16.32   16.76
   5    13.91   13.82   13.72   13.64   13.59   13.59   13.63   13.72   13.82   13.90
   6    11.38   11.35   11.31   11.28   11.25   11.25   11.27   11.31   11.35   11.37
   7     8.92    8.90    8.87    8.83    8.81    8.81    8.83    8.86    8.90    8.92
   8     6.53    6.48    6.39    6.30    6.24    6.24    6.29    6.39    6.47    6.53
   9     4.32    4.16    3.88    3.56    3.43    3.42    3.56    3.88    4.16    4.32
  10     2.73    2.34    1.48    0.00    0.00    0.00    0.00    1.48    2.33    2.73
1
              HEAD IN LAYER   2 AT END OF TIME STEP   6 IN STRESS PERIOD   13
  ---------------------------------------------------------------------------

           1       2       3       4       5       6       7       8       9      10
 ...................................................................................
   1    -0.28   -0.26   -0.26   -0.26   -0.27   -0.29   -0.31   -0.33   -0.36   -0.40
   2    -0.41    0.82    0.57    0.09   -0.40   -0.77   -0.73   -0.40   -0.10   -0.59
   3    -0.58    0.21   -0.24   -1.05   -2.20   -3.76   -3.37   -2.04   -1.13   -0.81
   4    -0.80   -0.22   -0.58   -1.17   -1.92   -2.77   -2.62   -1.91   -1.31   -1.04
   5    -1.04   -0.62   -0.76   -1.03   -1.32   -1.54   -1.56   -1.43   -1.27   -1.26
   6    -1.30   -1.00   -1.05   -1.17   -1.28   -1.37   -1.40   -1.39   -1.37   -1.49
   7    -1.57   -1.50   -1.54   -1.60   -1.66   -1.70   -1.72   -1.71   -1.70   -1.72
   8    -1.84   -2.14   -2.24   -2.31   -2.36   -2.38   -2.37   -2.33   -2.25   -1.96
   9    -2.10   -2.86   -3.10   -3.26   -3.34   -3.35   -3.30   -3.15   -2.93   -2.18
  10    -2.34   -2.40   -2.44   -2.48   -2.50   -2.50   -2.49   -2.47   -2.43   -2.39
1
              HEAD IN LAYER   3 AT END OF TIME STEP   6 IN STRESS PERIOD   13
  ---------------------------------------------------------------------------

           1       2       3       4       5       6       7       8       9      10
 ...................................................................................
   1   -17.27  -17.43  -17.74  -18.15  -18.57  -18.92  -19.07  -19.06  -18.98  -18.92
   2   -17.38  -17.63  -18.13  -18.85  -19.71  -20.48  -20.55  -20.14  -19.73  -19.50
   3   -17.23  -17.61  -18.43  -19.82  -22.04  -25.64  -24.78  -22.07  -20.60  -19.95
   4   -16.29  -16.60  -17.24  -18.24  -19.66  -21.52  -21.25  -19.90  -19.02  -18.59
   5   -14.79  -14.96  -15.29  -15.75  -16.28  -16.72  -16.81  -16.62  -16.40  -16.27
   6   -13.22  -13.31  -13.46  -13.65  -13.86  -14.03  -14.12  -14.12  -14.09  -14.07
   7   -11.88  -11.92  -11.99  -12.07  -12.17  -12.25  -12.30  -12.33  -12.34  -12.34
   8   -10.86  -10.88  -10.91  -10.96  -11.00  -11.04  -11.08  -11.10  -11.11  -11.12
   9   -10.19  -10.20  -10.22  -10.24  -10.27  -10.29  -10.31  -10.33  -10.34  -10.34
  10    -9.86   -9.87   -9.88   -9.89   -9.91   -9.93   -9.94   -9.95   -9.96   -9.96

 HEAD WILL BE SAVED ON UNIT   21 AT END OF TIME STEP     6 IN STRESS PERIOD     13

 DRAWDOWN WILL BE SAVED ON UNIT   22 AT END OF TIME STEP     6 IN STRESS PERIOD     13



  -------------------------------------------------------------------------------------
  VOLUMETRIC BUDGET FOR ENTIRE MODEL AT END OF TIME STEP    6 IN STRESS PERIOD     13
  -------------------------------------------------------------------------------------

     CUMULATIVE VOLUMES      L**3       RATES FOR THIS TIME STEP      L**3/T
     ------------------                 ------------------------

           IN:                                      IN:
           ---                                      ---
             STORAGE =    21878668.4581               STORAGE =        4196.4541
       CONSTANT HEAD =      106291.2987         CONSTANT HEAD =          59.8216
               WELLS =   131538000.0000                 WELLS =       30000.0000
    INST. IB STORAGE =    31486938.9061      INST. IB STORAGE =        5459.3991
    DELAY IB STORAGE =    67863126.3067      DELAY IB STORAGE =       16392.4054

            TOTAL IN =   252873024.9696              TOTAL IN =       56108.0802

          OUT:                                     OUT:
          ----                                     ----
             STORAGE =           0.0000               STORAGE =           0.0000
       CONSTANT HEAD =   121365053.7647         CONSTANT HEAD =       26108.1049
               WELLS =   131508000.0000                 WELLS =       30000.0000
    INST. IB STORAGE =       9.1562E-08      INST. IB STORAGE =       1.3959E-11
    DELAY IB STORAGE =       4.5015E-11      DELAY IB STORAGE =           0.0000

           TOTAL OUT =   252873053.7647             TOTAL OUT =       56108.1049

            IN - OUT =         -28.7951              IN - OUT =      -2.4703E-02

 PERCENT DISCREPANCY =          -0.00     PERCENT DISCREPANCY =          -0.00


          TIME SUMMARY AT END OF TIME STEP     6 IN STRESS PERIOD     13
                    SECONDS     MINUTES      HOURS       DAYS        YEARS
                    -----------------------------------------------------------
   TIME STEP LENGTH 9.18681E+06 1.53113E+05  2551.9      106.33     0.29111    
 STRESS PERIOD TIME 3.15619E+07 5.26032E+05  8767.2      365.30      1.0001    
         TOTAL TIME 3.78829E+08 6.31382E+06 1.05230E+05  4384.6      12.004    
 

                               VOLUMETRIC BUDGET FOR SYSTEMS OF DELAY INTERBEDS
                                          AT END OF TIME STEP  6 IN STRESS PERIOD 13

          |   C U M U L A T I V E   V O L U M E S   L**3           | R A T E S   F O R  T H I S  T I M E  S T E P   L**3/T  |
   SYSTEM |    CHANGE IN     BOUNDARY                    PERCENT   |    CHANGE IN     BOUNDARY                    PERCENT   |
   NUMBER |     STORAGE        FLOW           SUM      DISCREPANCY |     STORAGE        FLOW           SUM      DISCREPANCY |
  --------|--------------------------------------------------------|--------------------------------------------------------|
      1     54270.        -54270.       -0.14552E-10   -0.26814E-13     11.102        -11.102       -0.88818E-14   -0.79998E-13
      2    0.67809E+08   -0.67809E+08    0.14901E-07    0.21975E-13     16381.        -16381.       -0.18190E-11   -0.11104E-13
  --------|--------------------------------------------------------|--------------------------------------------------------|
 TOTALS:    0.67863E+08   -0.67863E+08    0.14901E-07    0.21958E-13     16392.        -16392.       -0.36380E-11   -0.22193E-13
1
                            STRESS PERIOD NO.     14, LENGTH =   365.3000    
                            -----------------------------------------------

                              NUMBER OF TIME STEPS =     6

                               MULTIPLIER FOR DELT =     1.300

                            INITIAL TIME STEP SIZE =   28.63744    

REUSING NON-PARAMETER WELLS FROM LAST STRESS PERIOD

14 WELLS
 
 SOLVING FOR HEAD 

    44 ITERATIONS FOR TIME STEP   1 IN STRESS PERIOD   14

 MAXIMUM HEAD CHANGE FOR EACH ITERATION:

    HEAD CHANGE   HEAD CHANGE   HEAD CHANGE   HEAD CHANGE   HEAD CHANGE
  LAYER,ROW,COL LAYER,ROW,COL LAYER,ROW,COL LAYER,ROW,COL LAYER,ROW,COL
 ----------------------------------------------------------------------
      2.803         3.217         2.278        -1.866        -2.981    
  (  3,  1, 10) (  3,  2,  8) (  3,  3,  3) (  3,  1, 10) (  3,  1,  1)
    -0.2883       -0.7013        -1.595        -1.076        0.8123    
  (  3,  1, 10) (  3,  1,  1) (  3,  1, 10) (  3,  2,  1) (  3,  1,  1)
    -0.7774E-01   -0.8112E-02   -0.5286E-02   -0.3888E-02   -0.1970E-02
  (  2,  8,  1) (  3,  3,  7) (  3,  3,  7) (  3,  3,  6) (  3,  1,  1)
    -0.1674E-02    0.5116E-03   -0.6800E-03    0.1251E-02    0.1050E-02
  (  3,  3,  6) (  3, 10,  8) (  3,  3,  6) (  3,  1,  2) (  3,  1,  6)
     0.1427E-02    0.1595E-02    0.1572E-02    0.2535E-02    0.2132E-02
  (  3,  1,  2) (  3,  1,  5) (  3, 10, 10) (  3,  3, 10) (  3,  1,  6)
     0.1412E-02    0.1304E-02    0.9613E-03    0.6753E-03    0.5184E-03
  (  3,  1,  7) (  3,  1,  6) (  3,  1,  6) (  3,  1,  7) (  3,  1,  6)
     0.3383E-03    0.3281E-03    0.2283E-03    0.1704E-03    0.1243E-03
  (  3,  1,  7) (  3,  1,  6) (  3,  1,  7) (  3,  1,  6) (  3,  1,  7)
     0.8583E-04    0.7826E-04    0.5817E-04    0.4073E-04    0.3156E-04
  (  3,  1,  6) (  3,  1,  6) (  3,  1,  6) (  3,  1,  7) (  3,  1,  6)
     0.2061E-04    0.1987E-04    0.1380E-04    0.9957E-05
  (  3,  1,  7) (  3,  1,  6) (  3,  1,  7) (  3,  1,  6)


 OUTPUT CONTROL FOR STRESS PERIOD     14   TIME STEP     1
    SAVE HEAD FOR ALL LAYERS

 HEAD WILL BE SAVED ON UNIT   21 AT END OF TIME STEP     1 IN STRESS PERIOD     14
 
 SOLVING FOR HEAD 
    42 ITERATIONS FOR TIME STEP   2 IN STRESS PERIOD   14

 MAXIMUM HEAD CHANGE FOR EACH ITERATION:

    HEAD CHANGE   HEAD CHANGE   HEAD CHANGE   HEAD CHANGE   HEAD CHANGE
  LAYER,ROW,COL LAYER,ROW,COL LAYER,ROW,COL LAYER,ROW,COL LAYER,ROW,COL
 ----------------------------------------------------------------------
      2.266         2.721         2.255        -1.500        -3.159    
  (  3,  1, 10) (  3,  2,  8) (  3,  2,  1) (  3,  1, 10) (  3,  1,  1)
    -0.2304       -0.5728        -1.425        0.2969       -0.3164E-01
  (  3,  1, 10) (  3,  1,  1) (  3,  1, 10) (  3, 10,  1) (  2,  1,  1)
    -0.6344E-01   -0.9420E-02   -0.3213E-02   -0.1733E-02   -0.2223E-02
  (  2,  7,  1) (  2,  1,  2) (  3,  3,  6) (  3,  3,  7) (  3,  3,  7)
     0.1332E-02    0.1148E-02    0.2352E-02    0.1176E-02    0.2837E-02
  (  3, 10,  1) (  3, 10, 10) (  3,  1,  2) (  3, 10,  9) (  3,  1,  1)
     0.1289E-02    0.2720E-02    0.2486E-02    0.1800E-02    0.1324E-02
  (  3, 10,  9) (  3,  1,  2) (  3,  2,  3) (  3,  2,  3) (  3,  2,  3)
     0.8309E-03    0.9077E-03    0.6216E-03    0.4195E-03    0.3073E-03
  (  3,  1, 10) (  3,  2,  3) (  3,  2,  3) (  3,  2,  3) (  3,  2,  3)
     0.1894E-03    0.2126E-03    0.1452E-03    0.9770E-04    0.7208E-04
  (  3,  1,  1) (  3,  2,  3) (  3,  2,  3) (  3,  2,  3) (  3,  2,  3)
     0.4352E-04    0.4908E-04    0.3383E-04    0.2307E-04    0.1691E-04
  (  3,  1, 10) (  3,  2,  3) (  3,  2,  3) (  3,  2,  3) (  3,  2,  3)
     0.1004E-04    0.4659E-05
  (  3,  1,  1) (  3,  1,  1)


 OUTPUT CONTROL FOR STRESS PERIOD     14   TIME STEP     2
    SAVE HEAD FOR ALL LAYERS

 HEAD WILL BE SAVED ON UNIT   21 AT END OF TIME STEP     2 IN STRESS PERIOD     14
 
 SOLVING FOR HEAD 
    40 ITERATIONS FOR TIME STEP   3 IN STRESS PERIOD   14

 MAXIMUM HEAD CHANGE FOR EACH ITERATION:

    HEAD CHANGE   HEAD CHANGE   HEAD CHANGE   HEAD CHANGE   HEAD CHANGE
  LAYER,ROW,COL LAYER,ROW,COL LAYER,ROW,COL LAYER,ROW,COL LAYER,ROW,COL
 ----------------------------------------------------------------------
      1.757         2.190         1.994        -1.279        -3.187    
  (  3,  1, 10) (  3,  1, 10) (  3,  2,  1) (  3,  2, 10) (  3,  1,  1)
     0.1947       -0.4009        -1.067        0.5510        0.4360E-01
  (  2,  5,  1) (  3,  1,  1) (  3,  1, 10) (  3, 10,  1) (  2, 10, 10)
    -0.4908E-01   -0.1192E-01   -0.6539E-02   -0.2600E-02   -0.1953E-02
  (  2,  7,  1) (  2,  1,  2) (  3,  3,  7) (  3,  4,  6) (  3,  3,  7)
    -0.5922E-03    0.1632E-02    0.1762E-02    0.2637E-02    0.3268E-02
  (  2,  7,  1) (  3,  7,  5) (  3,  1,  1) (  3,  5,  1) (  3,  1, 10)
     0.1962E-02    0.2369E-02    0.1606E-02    0.1020E-02    0.7328E-03
  (  3,  1,  1) (  3,  2,  2) (  3,  2,  2) (  3,  2,  2) (  3,  2,  2)
     0.4406E-03    0.5111E-03    0.3496E-03    0.2247E-03    0.1623E-03
  (  3,  1, 10) (  3,  2,  2) (  3,  2,  2) (  3,  2,  2) (  3,  2,  2)
     0.9280E-04    0.1140E-03    0.7784E-04    0.4994E-04    0.3606E-04
  (  3,  1,  1) (  3,  2,  2) (  3,  2,  2) (  3,  2,  2) (  3,  2,  2)
     0.2071E-04    0.2487E-04    0.1721E-04    0.1108E-04    0.4171E-05
  (  3,  1, 10) (  3,  2,  2) (  3,  2,  2) (  3,  2,  2) (  3,  2,  2)


 OUTPUT CONTROL FOR STRESS PERIOD     14   TIME STEP     3
    SAVE HEAD FOR ALL LAYERS

 HEAD WILL BE SAVED ON UNIT   21 AT END OF TIME STEP     3 IN STRESS PERIOD     14
 
 SOLVING FOR HEAD 
    36 ITERATIONS FOR TIME STEP   4 IN STRESS PERIOD   14

 MAXIMUM HEAD CHANGE FOR EACH ITERATION:

    HEAD CHANGE   HEAD CHANGE   HEAD CHANGE   HEAD CHANGE   HEAD CHANGE
  LAYER,ROW,COL LAYER,ROW,COL LAYER,ROW,COL LAYER,ROW,COL LAYER,ROW,COL
 ----------------------------------------------------------------------
      1.295         1.642         1.546        -1.127        -3.057    
  (  3,  1, 10) (  3,  1, 10) (  3,  2,  1) (  3,  1, 10) (  3,  1,  1)
     0.3031        0.1259       -0.1974E-01   -0.1860E-01   -0.1439E-01
  (  3, 10, 10) (  3,  9,  7) (  3,  3,  7) (  3,  1,  7) (  3,  3,  6)
    -0.6064E-02   -0.9059E-02   -0.3992E-02   -0.3032E-02    0.2381E-02
  (  3,  1, 10) (  3,  3,  6) (  3,  3,  6) (  3,  3,  6) (  3,  1,  1)
     0.1734E-02    0.3681E-02    0.3104E-02    0.1979E-02    0.1413E-02
  (  3,  7, 10) (  3,  1,  9) (  3,  1,  6) (  3,  1,  7) (  3,  1,  1)
     0.7634E-03    0.9456E-03    0.6740E-03    0.4060E-03    0.2880E-03
  (  3,  1,  1) (  3,  2,  2) (  3,  1,  1) (  3,  1,  1) (  3,  1,  7)
     0.1538E-03    0.1959E-03    0.1365E-03    0.8415E-04    0.5981E-04
  (  3,  1, 10) (  3,  1,  1) (  3,  1,  6) (  3,  1,  7) (  3,  1,  1)
     0.3630E-04    0.3929E-04    0.2809E-04    0.1725E-04    0.1261E-04
  (  2,  7,  1) (  3,  2,  2) (  3,  1,  1) (  3,  1,  1) (  3,  2, 10)
     0.6637E-05
  (  3,  1,  6)


 OUTPUT CONTROL FOR STRESS PERIOD     14   TIME STEP     4
    SAVE HEAD FOR ALL LAYERS

 HEAD WILL BE SAVED ON UNIT   21 AT END OF TIME STEP     4 IN STRESS PERIOD     14
 
 SOLVING FOR HEAD 
    31 ITERATIONS FOR TIME STEP   5 IN STRESS PERIOD   14

 MAXIMUM HEAD CHANGE FOR EACH ITERATION:

    HEAD CHANGE   HEAD CHANGE   HEAD CHANGE   HEAD CHANGE   HEAD CHANGE
  LAYER,ROW,COL LAYER,ROW,COL LAYER,ROW,COL LAYER,ROW,COL LAYER,ROW,COL
 ----------------------------------------------------------------------
     0.8889         1.119         1.032        -1.110        -2.734    
  (  3,  1, 10) (  3,  1, 10) (  3,  2,  1) (  3,  1, 10) (  3,  1,  1)
     0.7722        0.4596        0.1390        0.7205E-01   -0.4857E-01
  (  3, 10,  1) (  3,  9,  3) (  2,  1,  8) (  2, 10,  1) (  2, 10, 10)
     0.7798E-01    0.1325E-01   -0.7469E-02   -0.3977E-02   -0.2635E-02
  (  2,  6,  1) (  2,  1,  2) (  3,  8,  4) (  3,  8,  4) (  3,  8,  4)
    -0.2417E-02   -0.1817E-02   -0.1394E-02   -0.7586E-03   -0.4994E-03
  (  2,  6,  1) (  3,  9,  4) (  3,  8,  4) (  3,  8,  4) (  3,  8,  5)
    -0.2035E-03   -0.3404E-03   -0.2669E-03   -0.1455E-03   -0.9774E-04
  (  3,  8,  5) (  3,  8,  4) (  3,  8,  4) (  3,  8,  5) (  3,  8,  4)
    -0.4091E-04   -0.6627E-04   -0.5139E-04   -0.2882E-04   -0.1924E-04
  (  3,  8,  5) (  3,  8,  4) (  3,  8,  4) (  3,  8,  4) (  3,  8,  5)
    -0.8491E-05
  (  3,  8,  5)


 OUTPUT CONTROL FOR STRESS PERIOD     14   TIME STEP     5
    SAVE HEAD FOR ALL LAYERS

 HEAD WILL BE SAVED ON UNIT   21 AT END OF TIME STEP     5 IN STRESS PERIOD     14
 
 SOLVING FOR HEAD 
    32 ITERATIONS FOR TIME STEP   6 IN STRESS PERIOD   14

 MAXIMUM HEAD CHANGE FOR EACH ITERATION:

    HEAD CHANGE   HEAD CHANGE   HEAD CHANGE   HEAD CHANGE   HEAD CHANGE
  LAYER,ROW,COL LAYER,ROW,COL LAYER,ROW,COL LAYER,ROW,COL LAYER,ROW,COL
 ----------------------------------------------------------------------
     0.5433        0.6459        0.4512        -1.205        -1.181    
  (  3,  1, 10) (  3,  1, 10) (  3,  2,  1) (  3,  1, 10) (  3,  1,  1)
     0.5161        0.3037        0.8331E-01    0.2794E-01   -0.2649E-01
  (  3,  1, 10) (  3,  2,  2) (  2,  1,  9) (  2, 10,  1) (  2, 10, 10)
     0.2668E-01   -0.1178E-01   -0.9682E-02   -0.4945E-02   -0.3015E-02
  (  2,  7,  1) (  3,  2,  7) (  3,  3,  6) (  3,  3,  6) (  3,  3,  6)
    -0.2567E-02   -0.2015E-02   -0.1718E-02   -0.8671E-03   -0.5525E-03
  (  2,  7,  1) (  3,  3,  6) (  3,  3,  6) (  3,  3,  6) (  3,  3,  6)
    -0.4047E-03   -0.3640E-03   -0.3051E-03   -0.1613E-03   -0.1008E-03
  (  2,  8,  1) (  3,  3,  6) (  3,  3,  6) (  3,  3,  6) (  3,  3,  6)
    -0.4261E-04   -0.6687E-04   -0.5698E-04   -0.3023E-04   -0.1975E-04
  (  2,  8,  1) (  3,  3,  6) (  3,  3,  6) (  3,  3,  6) (  3,  3,  6)
    -0.1142E-04   -0.4007E-05
  (  2,  8,  1) (  3,  3,  6)


 OUTPUT CONTROL FOR STRESS PERIOD     14   TIME STEP     6
    PRINT BUDGET
    PRINT HEAD FOR ALL LAYERS
    SAVE HEAD FOR ALL LAYERS
    SAVE DRAWDOWN FOR ALL LAYERS
1
              HEAD IN LAYER   1 AT END OF TIME STEP   6 IN STRESS PERIOD   14
  ---------------------------------------------------------------------------

           1       2       3       4       5       6       7       8       9      10
 ...................................................................................
   1    21.18   20.83   20.16   19.74   19.54   19.54   19.74   20.16   20.82   21.17
   2    20.15   19.65   19.22   18.93   18.77   18.77   18.92   19.22   19.64   20.14
   3    18.68   18.18   17.81   17.57   17.44   17.44   17.56   17.80   18.17   18.67
   4    16.67   16.24   15.94   15.75   15.65   15.65   15.74   15.93   16.23   16.66
   5    13.82   13.73   13.63   13.55   13.50   13.50   13.55   13.63   13.73   13.81
   6    11.30   11.27   11.23   11.20   11.18   11.17   11.19   11.23   11.27   11.29
   7     8.86    8.84    8.80    8.76    8.74    8.74    8.76    8.80    8.83    8.85
   8     6.48    6.43    6.34    6.25    6.19    6.19    6.24    6.34    6.42    6.48
   9     4.29    4.13    3.85    3.53    3.40    3.40    3.53    3.85    4.13    4.29
  10     2.71    2.32    1.46    0.00    0.00    0.00    0.00    1.46    2.31    2.71
1
              HEAD IN LAYER   2 AT END OF TIME STEP   6 IN STRESS PERIOD   14
  ---------------------------------------------------------------------------

           1       2       3       4       5       6       7       8       9      10
 ...................................................................................
   1    -0.62   -0.60   -0.60   -0.60   -0.62   -0.63   -0.65   -0.68   -0.71   -0.74
   2    -0.74    0.44    0.18   -0.30   -0.79   -1.16   -1.12   -0.79   -0.48   -0.93
   3    -0.91   -0.16   -0.61   -1.42   -2.58   -4.14   -3.75   -2.42   -1.50   -1.14
   4    -1.12   -0.57   -0.93   -1.53   -2.28   -3.12   -2.98   -2.26   -1.67   -1.36
   5    -1.35   -0.94   -1.09   -1.36   -1.64   -1.87   -1.89   -1.76   -1.60   -1.57
   6    -1.60   -1.30   -1.35   -1.46   -1.58   -1.67   -1.70   -1.69   -1.67   -1.79
   7    -1.86   -1.77   -1.81   -1.87   -1.93   -1.97   -1.99   -1.98   -1.98   -2.02
   8    -2.12   -2.39   -2.48   -2.55   -2.60   -2.62   -2.61   -2.58   -2.50   -2.24
   9    -2.38   -3.09   -3.32   -3.48   -3.56   -3.57   -3.52   -3.38   -3.16   -2.46
  10    -2.61   -2.66   -2.71   -2.74   -2.76   -2.76   -2.75   -2.73   -2.70   -2.65
1
              HEAD IN LAYER   3 AT END OF TIME STEP   6 IN STRESS PERIOD   14
  ---------------------------------------------------------------------------

           1       2       3       4       5       6       7       8       9      10
 ...................................................................................
   1   -17.94  -18.10  -18.41  -18.82  -19.25  -19.59  -19.75  -19.74  -19.67  -19.61
   2   -18.03  -18.29  -18.79  -19.52  -20.38  -21.15  -21.22  -20.81  -20.40  -20.17
   3   -17.86  -18.25  -19.07  -20.46  -22.68  -26.29  -25.43  -22.72  -21.25  -20.60
   4   -16.89  -17.20  -17.84  -18.85  -20.28  -22.14  -21.87  -20.52  -19.64  -19.21
   5   -15.35  -15.52  -15.85  -16.32  -16.85  -17.29  -17.38  -17.19  -16.97  -16.84
   6   -13.74  -13.82  -13.97  -14.17  -14.38  -14.55  -14.64  -14.65  -14.62  -14.59
   7   -12.35  -12.39  -12.46  -12.55  -12.64  -12.72  -12.78  -12.81  -12.82  -12.82
   8   -11.30  -11.32  -11.35  -11.39  -11.44  -11.48  -11.52  -11.54  -11.55  -11.56
   9   -10.60  -10.61  -10.63  -10.66  -10.68  -10.71  -10.73  -10.74  -10.75  -10.75
  10   -10.26  -10.26  -10.28  -10.29  -10.31  -10.32  -10.34  -10.35  -10.36  -10.36

 HEAD WILL BE SAVED ON UNIT   21 AT END OF TIME STEP     6 IN STRESS PERIOD     14

 DRAWDOWN WILL BE SAVED ON UNIT   22 AT END OF TIME STEP     6 IN STRESS PERIOD     14



  -------------------------------------------------------------------------------------
  VOLUMETRIC BUDGET FOR ENTIRE MODEL AT END OF TIME STEP    6 IN STRESS PERIOD     14
  -------------------------------------------------------------------------------------

     CUMULATIVE VOLUMES      L**3       RATES FOR THIS TIME STEP      L**3/T
     ------------------                 ------------------------

           IN:                                      IN:
           ---                                      ---
             STORAGE =    23391486.3705               STORAGE =        4104.9051
       CONSTANT HEAD =      129518.5117         CONSTANT HEAD =          66.1034
               WELLS =   142497000.0000                 WELLS =       30000.0000
    INST. IB STORAGE =    33473198.9393      INST. IB STORAGE =        5418.3894
    DELAY IB STORAGE =    73828640.6129      DELAY IB STORAGE =       16293.3747

            TOTAL IN =   273319844.4343              TOTAL IN =       55882.7726

          OUT:                                     OUT:
          ----                                     ----
             STORAGE =           0.0000               STORAGE =           0.0000
       CONSTANT HEAD =   130852885.1194         CONSTANT HEAD =       25882.7971
               WELLS =   142467000.0000                 WELLS =       30000.0000
    INST. IB STORAGE =       1.0248E-07      INST. IB STORAGE =       1.6235E-11
    DELAY IB STORAGE =       4.5015E-11      DELAY IB STORAGE =           0.0000

           TOTAL OUT =   273319885.1194             TOTAL OUT =       55882.7971

            IN - OUT =         -40.6850              IN - OUT =      -2.4528E-02

 PERCENT DISCREPANCY =          -0.00     PERCENT DISCREPANCY =          -0.00


          TIME SUMMARY AT END OF TIME STEP     6 IN STRESS PERIOD     14
                    SECONDS     MINUTES      HOURS       DAYS        YEARS
                    -----------------------------------------------------------
   TIME STEP LENGTH 9.18681E+06 1.53113E+05  2551.9      106.33     0.29111    
 STRESS PERIOD TIME 3.15619E+07 5.26032E+05  8767.2      365.30      1.0001    
         TOTAL TIME 4.10391E+08 6.83986E+06 1.13998E+05  4749.9      13.005    
 

                               VOLUMETRIC BUDGET FOR SYSTEMS OF DELAY INTERBEDS
                                          AT END OF TIME STEP  6 IN STRESS PERIOD 14

          |   C U M U L A T I V E   V O L U M E S   L**3           | R A T E S   F O R  T H I S  T I M E  S T E P   L**3/T  |
   SYSTEM |    CHANGE IN     BOUNDARY                    PERCENT   |    CHANGE IN     BOUNDARY                    PERCENT   |
   NUMBER |     STORAGE        FLOW           SUM      DISCREPANCY |     STORAGE        FLOW           SUM      DISCREPANCY |
  --------|--------------------------------------------------------|--------------------------------------------------------|
      1     58273.        -58273.       -0.14552E-10   -0.24972E-13     10.859        -10.859        0.35527E-14    0.32717E-13
      2    0.73770E+08   -0.73770E+08    0.29802E-07    0.40399E-13     16283.        -16283.        0.72760E-11    0.44686E-13
  --------|--------------------------------------------------------|--------------------------------------------------------|
 TOTALS:    0.73829E+08   -0.73829E+08    0.29802E-07    0.40367E-13     16293.        -16293.        0.72760E-11    0.44656E-13
1
                            STRESS PERIOD NO.     15, LENGTH =   365.3000    
                            -----------------------------------------------

                              NUMBER OF TIME STEPS =     6

                               MULTIPLIER FOR DELT =     1.300

                            INITIAL TIME STEP SIZE =   28.63744    

REUSING NON-PARAMETER WELLS FROM LAST STRESS PERIOD

14 WELLS
 
 SOLVING FOR HEAD 

    44 ITERATIONS FOR TIME STEP   1 IN STRESS PERIOD   15

 MAXIMUM HEAD CHANGE FOR EACH ITERATION:

    HEAD CHANGE   HEAD CHANGE   HEAD CHANGE   HEAD CHANGE   HEAD CHANGE
  LAYER,ROW,COL LAYER,ROW,COL LAYER,ROW,COL LAYER,ROW,COL LAYER,ROW,COL
 ----------------------------------------------------------------------
      2.743         3.131         2.249        -1.804        -2.932    
  (  3,  1,  1) (  3,  2,  8) (  3,  3,  3) (  3,  1, 10) (  3,  1,  1)
    -0.2806       -0.6867        -1.560        -1.054        0.7937    
  (  3,  1, 10) (  3,  1,  1) (  3,  1, 10) (  3,  2,  1) (  3,  1,  1)
    -0.7600E-01   -0.7709E-02   -0.5145E-02   -0.3588E-02   -0.1862E-02
  (  2,  7,  1) (  3,  3,  7) (  3,  3,  5) (  3,  3,  7) (  3,  1,  5)
    -0.1472E-02    0.4696E-03   -0.5400E-03    0.1354E-02    0.9965E-03
  (  3,  3,  6) (  3, 10,  4) (  3,  3,  6) (  3,  1,  1) (  3,  1,  6)
     0.1541E-02    0.1561E-02    0.1624E-02    0.2499E-02    0.2069E-02
  (  3,  1,  1) (  3,  1,  5) (  3, 10,  7) (  3,  3, 10) (  3,  1,  6)
     0.1373E-02    0.1269E-02    0.9293E-03    0.6615E-03    0.5010E-03
  (  3,  1,  7) (  3,  1,  6) (  3,  1,  6) (  3,  1,  7) (  3,  1,  6)
     0.3321E-03    0.3171E-03    0.2238E-03    0.1646E-03    0.1221E-03
  (  3,  1,  7) (  3,  1,  6) (  3,  1,  7) (  3,  1,  6) (  3,  1,  7)
     0.8327E-04    0.7645E-04    0.5620E-04    0.4008E-04    0.3048E-04
  (  3,  1,  6) (  3,  1,  6) (  3,  1,  6) (  3,  1,  7) (  3,  1,  6)
     0.2034E-04    0.1919E-04    0.1359E-04    0.9329E-05
  (  3,  1,  7) (  3,  1,  6) (  3,  1,  7) (  3,  1,  7)


 OUTPUT CONTROL FOR STRESS PERIOD     15   TIME STEP     1
    SAVE HEAD FOR ALL LAYERS

 HEAD WILL BE SAVED ON UNIT   21 AT END OF TIME STEP     1 IN STRESS PERIOD     15
 
 SOLVING FOR HEAD 
    41 ITERATIONS FOR TIME STEP   2 IN STRESS PERIOD   15

 MAXIMUM HEAD CHANGE FOR EACH ITERATION:

    HEAD CHANGE   HEAD CHANGE   HEAD CHANGE   HEAD CHANGE   HEAD CHANGE
  LAYER,ROW,COL LAYER,ROW,COL LAYER,ROW,COL LAYER,ROW,COL LAYER,ROW,COL
 ----------------------------------------------------------------------
      2.216         2.648         2.221        -1.445        -3.110    
  (  3,  1,  1) (  3,  2,  8) (  3,  2,  1) (  3,  1, 10) (  3,  1,  1)
    -0.2240       -0.5606        -1.394        0.2884       -0.3249E-01
  (  3,  1, 10) (  3,  1,  1) (  3,  1, 10) (  3, 10,  1) (  2,  1,  1)
    -0.6202E-01   -0.9670E-02   -0.2612E-02   -0.1634E-02   -0.2029E-02
  (  2,  7,  1) (  2,  1,  2) (  3,  3,  7) (  3,  3,  7) (  3,  1, 10)
     0.1440E-02    0.1175E-02    0.2353E-02    0.1220E-02    0.2790E-02
  (  3, 10,  4) (  3,  8,  9) (  3,  1,  3) (  3, 10, 10) (  3,  1,  1)
     0.1392E-02    0.2702E-02    0.2406E-02    0.1680E-02    0.1228E-02
  (  3, 10, 10) (  3,  2,  2) (  3,  1,  1) (  3,  1,  9) (  3,  1,  9)
     0.8082E-03    0.8349E-03    0.5649E-03    0.3822E-03    0.2808E-03
  (  3,  1, 10) (  3,  2,  2) (  3,  1,  6) (  3,  1,  1) (  3,  1,  9)
     0.1799E-03    0.1918E-03    0.1299E-03    0.8785E-04    0.6427E-04
  (  3,  1,  1) (  3,  2,  2) (  3,  1,  1) (  3,  1,  9) (  3,  1,  9)
     0.4226E-04    0.4349E-04    0.3014E-04    0.2003E-04    0.1486E-04
  (  3,  1, 10) (  3,  2,  2) (  3,  4,  3) (  3,  1,  1) (  3,  4,  3)
     0.9460E-05
  (  3,  1,  1)


 OUTPUT CONTROL FOR STRESS PERIOD     15   TIME STEP     2
    SAVE HEAD FOR ALL LAYERS

 HEAD WILL BE SAVED ON UNIT   21 AT END OF TIME STEP     2 IN STRESS PERIOD     15
 
 SOLVING FOR HEAD 
    40 ITERATIONS FOR TIME STEP   3 IN STRESS PERIOD   15

 MAXIMUM HEAD CHANGE FOR EACH ITERATION:

    HEAD CHANGE   HEAD CHANGE   HEAD CHANGE   HEAD CHANGE   HEAD CHANGE
  LAYER,ROW,COL LAYER,ROW,COL LAYER,ROW,COL LAYER,ROW,COL LAYER,ROW,COL
 ----------------------------------------------------------------------
      1.717         2.130         1.964        -1.233        -3.143    
  (  3,  1,  1) (  3,  1, 10) (  3,  2,  1) (  3,  2, 10) (  3,  1,  1)
     0.1929       -0.3921        -1.042        0.5455        0.4208E-01
  (  2,  5,  1) (  3,  1,  1) (  3,  1, 10) (  3, 10,  1) (  2, 10, 10)
    -0.4796E-01   -0.1205E-01   -0.6248E-02   -0.2378E-02   -0.1749E-02
  (  2,  7,  1) (  2,  1,  2) (  3,  3,  7) (  3,  4,  7) (  3,  3,  7)
    -0.8087E-03    0.1667E-02    0.1636E-02    0.2702E-02    0.3079E-02
  (  3,  1,  9) (  3,  6,  1) (  3,  1,  2) (  3,  6,  1) (  3,  1,  3)
     0.1979E-02    0.2585E-02    0.1739E-02    0.1235E-02    0.8786E-03
  (  3,  1,  1) (  3,  1,  9) (  3,  1,  9) (  3,  1,  9) (  3,  1,  9)
     0.5638E-03    0.5478E-03    0.4143E-03    0.2712E-03    0.2036E-03
  (  3,  1,  9) (  3,  1,  9) (  3,  1,  9) (  3,  1,  9) (  3,  1,  9)
     0.1250E-03    0.1313E-03    0.8919E-04    0.6380E-04    0.4606E-04
  (  3,  1,  9) (  3,  1,  9) (  3,  1,  9) (  3,  1,  9) (  3,  1,  9)
     0.3050E-04    0.2848E-04    0.2148E-04    0.1448E-04    0.8662E-05
  (  3,  1,  9) (  3,  1,  9) (  3,  1,  9) (  3,  1,  9) (  3,  1,  9)


 OUTPUT CONTROL FOR STRESS PERIOD     15   TIME STEP     3
    SAVE HEAD FOR ALL LAYERS

 HEAD WILL BE SAVED ON UNIT   21 AT END OF TIME STEP     3 IN STRESS PERIOD     15
 
 SOLVING FOR HEAD 
    36 ITERATIONS FOR TIME STEP   4 IN STRESS PERIOD   15

 MAXIMUM HEAD CHANGE FOR EACH ITERATION:

    HEAD CHANGE   HEAD CHANGE   HEAD CHANGE   HEAD CHANGE   HEAD CHANGE
  LAYER,ROW,COL LAYER,ROW,COL LAYER,ROW,COL LAYER,ROW,COL LAYER,ROW,COL
 ----------------------------------------------------------------------
      1.263         1.597         1.521        -1.088        -3.012    
  (  3,  1,  1) (  3,  1, 10) (  3,  2,  1) (  3,  1, 10) (  3,  1,  1)
     0.2899        0.1201       -0.1835E-01   -0.1808E-01   -0.1378E-01
  (  3, 10, 10) (  3,  9,  6) (  3,  3,  6) (  3,  1,  8) (  3,  3,  6)
    -0.5906E-02   -0.8612E-02   -0.3296E-02   -0.2857E-02    0.2268E-02
  (  3,  1, 10) (  3,  3,  6) (  3,  5,  5) (  3,  3,  6) (  3,  1,  8)
     0.1731E-02    0.3619E-02    0.3071E-02    0.1967E-02    0.1387E-02
  (  3,  7, 10) (  3,  1,  9) (  3,  1,  6) (  3,  1,  7) (  3,  1,  1)
     0.7473E-03    0.9301E-03    0.6619E-03    0.4034E-03    0.2873E-03
  (  3,  1,  1) (  3,  2,  2) (  3,  1,  1) (  3,  1,  6) (  3,  1,  7)
     0.1524E-03    0.1921E-03    0.1357E-03    0.8419E-04    0.5852E-04
  (  3,  1,  6) (  3,  1,  1) (  3,  1,  6) (  3,  1,  7) (  3,  1,  1)
     0.3570E-04    0.3857E-04    0.2750E-04    0.1721E-04    0.1258E-04
  (  2,  7,  1) (  3,  1,  7) (  3,  1,  1) (  3,  1,  6) (  3,  1,  7)
     0.6329E-05
  (  3,  1,  6)


 OUTPUT CONTROL FOR STRESS PERIOD     15   TIME STEP     4
    SAVE HEAD FOR ALL LAYERS

 HEAD WILL BE SAVED ON UNIT   21 AT END OF TIME STEP     4 IN STRESS PERIOD     15
 
 SOLVING FOR HEAD 
    31 ITERATIONS FOR TIME STEP   5 IN STRESS PERIOD   15

 MAXIMUM HEAD CHANGE FOR EACH ITERATION:

    HEAD CHANGE   HEAD CHANGE   HEAD CHANGE   HEAD CHANGE   HEAD CHANGE
  LAYER,ROW,COL LAYER,ROW,COL LAYER,ROW,COL LAYER,ROW,COL LAYER,ROW,COL
 ----------------------------------------------------------------------
     0.8652         1.087         1.016        -1.077        -2.704    
  (  3,  1,  1) (  3,  1, 10) (  3,  2,  1) (  3,  2, 10) (  3,  1,  1)
     0.7620        0.4527        0.1388        0.7180E-01   -0.4812E-01
  (  3, 10,  1) (  3,  9,  3) (  2,  1,  8) (  2, 10,  1) (  2, 10, 10)
     0.7792E-01    0.1326E-01   -0.7254E-02   -0.3825E-02   -0.2562E-02
  (  2,  6,  1) (  2,  1,  2) (  3,  8,  6) (  3,  9,  5) (  3,  9,  7)
    -0.2414E-02   -0.1768E-02   -0.1329E-02   -0.7355E-03   -0.4773E-03
  (  2,  6,  1) (  3,  9,  7) (  3,  8,  5) (  3,  8,  6) (  3,  9,  5)
    -0.2027E-03   -0.3262E-03   -0.2570E-03   -0.1376E-03   -0.9430E-04
  (  3, 10, 10) (  3,  9,  5) (  3,  8,  6) (  3,  8,  6) (  3,  8,  6)
    -0.3835E-04   -0.6371E-04   -0.4837E-04   -0.2776E-04   -0.1796E-04
  (  3,  8,  6) (  3,  9,  7) (  3,  8,  6) (  3,  8,  6) (  3,  8,  6)
    -0.8108E-05
  (  3,  8,  6)


 OUTPUT CONTROL FOR STRESS PERIOD     15   TIME STEP     5
    SAVE HEAD FOR ALL LAYERS

 HEAD WILL BE SAVED ON UNIT   21 AT END OF TIME STEP     5 IN STRESS PERIOD     15
 
 SOLVING FOR HEAD 
    32 ITERATIONS FOR TIME STEP   6 IN STRESS PERIOD   15

 MAXIMUM HEAD CHANGE FOR EACH ITERATION:

    HEAD CHANGE   HEAD CHANGE   HEAD CHANGE   HEAD CHANGE   HEAD CHANGE
  LAYER,ROW,COL LAYER,ROW,COL LAYER,ROW,COL LAYER,ROW,COL LAYER,ROW,COL
 ----------------------------------------------------------------------
     0.5285        0.6264        0.4447        -1.178        -1.163    
  (  3,  1, 10) (  3,  2,  8) (  3,  2,  1) (  3,  1, 10) (  3,  1,  1)
     0.5115        0.3009        0.8280E-01    0.2783E-01   -0.2643E-01
  (  3,  1, 10) (  3,  2,  2) (  2,  1,  9) (  2, 10,  1) (  2, 10, 10)
     0.2671E-01   -0.1161E-01   -0.9483E-02   -0.4836E-02   -0.2937E-02
  (  2,  7,  1) (  3,  2,  7) (  3,  3,  6) (  3,  3,  6) (  3,  3,  6)
    -0.2543E-02   -0.1966E-02   -0.1678E-02   -0.8415E-03   -0.5361E-03
  (  2,  7,  1) (  3,  3,  6) (  3,  3,  6) (  3,  3,  6) (  3,  3,  6)
    -0.4007E-03   -0.3530E-03   -0.2955E-03   -0.1557E-03   -0.9660E-04
  (  2,  8,  1) (  3,  3,  6) (  3,  3,  6) (  3,  3,  6) (  3,  3,  6)
    -0.4228E-04   -0.6426E-04   -0.5481E-04   -0.2874E-04   -0.1877E-04
  (  2,  8,  1) (  3,  3,  6) (  3,  3,  6) (  3,  3,  6) (  3,  3,  6)
    -0.1139E-04   -0.3930E-05
  (  2,  8,  1) (  3,  3,  6)


 OUTPUT CONTROL FOR STRESS PERIOD     15   TIME STEP     6
    PRINT BUDGET
    PRINT HEAD FOR ALL LAYERS
    SAVE HEAD FOR ALL LAYERS
    SAVE DRAWDOWN FOR ALL LAYERS
1
              HEAD IN LAYER   1 AT END OF TIME STEP   6 IN STRESS PERIOD   15
  ---------------------------------------------------------------------------

           1       2       3       4       5       6       7       8       9      10
 ...................................................................................
   1    21.07   20.72   20.06   19.64   19.43   19.43   19.63   20.05   20.71   21.06
   2    20.05   19.54   19.12   18.82   18.67   18.67   18.82   19.11   19.54   20.04
   3    18.58   18.08   17.71   17.47   17.34   17.34   17.46   17.70   18.07   18.57
   4    16.58   16.14   15.84   15.65   15.56   15.55   15.64   15.83   16.13   16.57
   5    13.74   13.65   13.55   13.46   13.42   13.42   13.46   13.54   13.64   13.73
   6    11.22   11.20   11.16   11.12   11.10   11.10   11.12   11.15   11.19   11.22
   7     8.79    8.77    8.74    8.70    8.68    8.68    8.70    8.73    8.77    8.79
   8     6.43    6.38    6.29    6.20    6.15    6.15    6.20    6.29    6.37    6.43
   9     4.25    4.10    3.82    3.50    3.37    3.37    3.50    3.81    4.09    4.25
  10     2.69    2.30    1.45    0.00    0.00    0.00    0.00    1.45    2.29    2.68
1
              HEAD IN LAYER   2 AT END OF TIME STEP   6 IN STRESS PERIOD   15
  ---------------------------------------------------------------------------

           1       2       3       4       5       6       7       8       9      10
 ...................................................................................
   1    -0.96   -0.94   -0.94   -0.94   -0.96   -0.97   -0.99   -1.02   -1.04   -1.08
   2    -1.07    0.07   -0.19   -0.67   -1.16   -1.53   -1.50   -1.17   -0.85   -1.26
   3    -1.23   -0.51   -0.98   -1.78   -2.94   -4.51   -4.12   -2.79   -1.87   -1.47
   4    -1.43   -0.91   -1.28   -1.87   -2.63   -3.47   -3.33   -2.61   -2.01   -1.67
   5    -1.66   -1.26   -1.41   -1.68   -1.97   -2.19   -2.22   -2.08   -1.93   -1.88
   6    -1.89   -1.60   -1.65   -1.76   -1.88   -1.96   -2.00   -1.98   -1.97   -2.09
   7    -2.14   -2.04   -2.08   -2.14   -2.20   -2.24   -2.26   -2.26   -2.25   -2.30
   8    -2.40   -2.64   -2.73   -2.80   -2.85   -2.87   -2.86   -2.83   -2.76   -2.52
   9    -2.65   -3.32   -3.55   -3.71   -3.79   -3.80   -3.74   -3.60   -3.39   -2.73
  10    -2.88   -2.93   -2.97   -3.00   -3.02   -3.03   -3.02   -2.99   -2.96   -2.92
1
              HEAD IN LAYER   3 AT END OF TIME STEP   6 IN STRESS PERIOD   15
  ---------------------------------------------------------------------------

           1       2       3       4       5       6       7       8       9      10
 ...................................................................................
   1   -18.59  -18.76  -19.07  -19.48  -19.91  -20.26  -20.41  -20.41  -20.33  -20.27
   2   -18.68  -18.93  -19.44  -20.17  -21.03  -21.80  -21.88  -21.47  -21.06  -20.83
   3   -18.49  -18.87  -19.70  -21.09  -23.32  -26.92  -26.06  -23.36  -21.89  -21.24
   4   -17.48  -17.79  -18.44  -19.45  -20.88  -22.74  -22.47  -21.12  -20.25  -19.82
   5   -15.90  -16.08  -16.41  -16.88  -17.41  -17.86  -17.94  -17.76  -17.54  -17.41
   6   -14.25  -14.34  -14.49  -14.69  -14.90  -15.07  -15.16  -15.17  -15.14  -15.12
   7   -12.83  -12.87  -12.94  -13.03  -13.12  -13.20  -13.26  -13.29  -13.30  -13.30
   8   -11.74  -11.76  -11.79  -11.84  -11.88  -11.93  -11.96  -11.98  -12.00  -12.00
   9   -11.02  -11.03  -11.05  -11.07  -11.10  -11.12  -11.15  -11.16  -11.17  -11.18
  10   -10.66  -10.67  -10.68  -10.70  -10.71  -10.73  -10.75  -10.76  -10.77  -10.77

 HEAD WILL BE SAVED ON UNIT   21 AT END OF TIME STEP     6 IN STRESS PERIOD     15

 DRAWDOWN WILL BE SAVED ON UNIT   22 AT END OF TIME STEP     6 IN STRESS PERIOD     15



  -------------------------------------------------------------------------------------
  VOLUMETRIC BUDGET FOR ENTIRE MODEL AT END OF TIME STEP    6 IN STRESS PERIOD     15
  -------------------------------------------------------------------------------------

     CUMULATIVE VOLUMES      L**3       RATES FOR THIS TIME STEP      L**3/T
     ------------------                 ------------------------

           IN:                                      IN:
           ---                                      ---
             STORAGE =    24871715.9927               STORAGE =        4017.2438
       CONSTANT HEAD =      155042.8114         CONSTANT HEAD =          72.3955
               WELLS =   153456000.0000                 WELLS =       30000.0000
    INST. IB STORAGE =    35444804.4276      INST. IB STORAGE =        5379.7519
    DELAY IB STORAGE =    79757815.3938      DELAY IB STORAGE =       16192.6673

            TOTAL IN =   293685378.6255              TOTAL IN =       55662.0584

          OUT:                                     OUT:
          ----                                     ----
             STORAGE =           0.0000               STORAGE =           0.0000
       CONSTANT HEAD =   140259425.5168         CONSTANT HEAD =       25662.0828
               WELLS =   153426000.0000                 WELLS =       30000.0000
    INST. IB STORAGE =       1.1299E-07      INST. IB STORAGE =       1.9596E-11
    DELAY IB STORAGE =       6.0573E-11      DELAY IB STORAGE =           0.0000

           TOTAL OUT =   293685425.5168             TOTAL OUT =       55662.0828

            IN - OUT =         -46.8913              IN - OUT =      -2.4338E-02

 PERCENT DISCREPANCY =          -0.00     PERCENT DISCREPANCY =          -0.00


          TIME SUMMARY AT END OF TIME STEP     6 IN STRESS PERIOD     15
                    SECONDS     MINUTES      HOURS       DAYS        YEARS
                    -----------------------------------------------------------
   TIME STEP LENGTH 9.18681E+06 1.53113E+05  2551.9      106.33     0.29111    
 STRESS PERIOD TIME 3.15619E+07 5.26032E+05  8767.2      365.30      1.0001    
         TOTAL TIME 4.41953E+08 7.36589E+06 1.22765E+05  5115.2      14.005    
 

                               VOLUMETRIC BUDGET FOR SYSTEMS OF DELAY INTERBEDS
                                          AT END OF TIME STEP  6 IN STRESS PERIOD 15

          |   C U M U L A T I V E   V O L U M E S   L**3           | R A T E S   F O R  T H I S  T I M E  S T E P   L**3/T  |
   SYSTEM |    CHANGE IN     BOUNDARY                    PERCENT   |    CHANGE IN     BOUNDARY                    PERCENT   |
   NUMBER |     STORAGE        FLOW           SUM      DISCREPANCY |     STORAGE        FLOW           SUM      DISCREPANCY |
  --------|--------------------------------------------------------|--------------------------------------------------------|
      1     62190.        -62190.       -0.14552E-10   -0.23399E-13     10.625        -10.625        0.35527E-14    0.33437E-13
      2    0.79696E+08   -0.79696E+08    0.29802E-07    0.37395E-13     16182.        -16182.       -0.72760E-11   -0.44963E-13
  --------|--------------------------------------------------------|--------------------------------------------------------|
 TOTALS:    0.79758E+08   -0.79758E+08    0.29802E-07    0.37366E-13     16193.        -16193.       -0.72760E-11   -0.44934E-13
1
                            STRESS PERIOD NO.     16, LENGTH =   365.3000    
                            -----------------------------------------------

                              NUMBER OF TIME STEPS =     6

                               MULTIPLIER FOR DELT =     1.300

                            INITIAL TIME STEP SIZE =   28.63744    

REUSING NON-PARAMETER WELLS FROM LAST STRESS PERIOD

14 WELLS
 
 SOLVING FOR HEAD 

    44 ITERATIONS FOR TIME STEP   1 IN STRESS PERIOD   16

 MAXIMUM HEAD CHANGE FOR EACH ITERATION:

    HEAD CHANGE   HEAD CHANGE   HEAD CHANGE   HEAD CHANGE   HEAD CHANGE
  LAYER,ROW,COL LAYER,ROW,COL LAYER,ROW,COL LAYER,ROW,COL LAYER,ROW,COL
 ----------------------------------------------------------------------
      2.688         3.051         2.221        -1.746        -2.884    
  (  3,  1,  1) (  3,  2,  8) (  3,  3,  3) (  3,  1, 10) (  3,  1,  1)
    -0.2732       -0.6723        -1.526        -1.035        0.7791    
  (  3,  1, 10) (  3,  1,  1) (  3,  1, 10) (  3,  2,  1) (  3,  1,  1)
    -0.7442E-01   -0.7377E-02   -0.5006E-02   -0.3463E-02   -0.1864E-02
  (  2,  7,  1) (  3,  2,  9) (  3,  3,  7) (  3,  3,  7) (  3,  1,  9)
    -0.1500E-02    0.5124E-03    0.5010E-03    0.1288E-02    0.9585E-03
  (  3,  2, 10) (  3, 10,  2) (  3, 10,  6) (  3,  1,  1) (  3,  1,  6)
     0.1481E-02    0.1516E-02    0.1613E-02    0.2437E-02    0.1892E-02
  (  3,  1,  1) (  3,  1,  5) (  3, 10,  9) (  3,  3,  9) (  3,  1,  6)
     0.1264E-02    0.1207E-02    0.8646E-03    0.6281E-03    0.4634E-03
  (  3,  1,  6) (  3,  1,  6) (  3,  1,  6) (  3,  1,  6) (  3,  1,  5)
     0.3111E-03    0.2980E-03    0.2134E-03    0.1520E-03    0.1161E-03
  (  3,  1,  6) (  3,  1,  6) (  3,  1,  6) (  3,  1,  5) (  3,  1,  6)
     0.7637E-04    0.7286E-04    0.5194E-04    0.3825E-04    0.2808E-04
  (  3,  1,  5) (  3,  1,  6) (  3,  1,  5) (  3,  1,  6) (  3,  1,  5)
     0.1911E-04    0.1799E-04    0.1304E-04    0.8247E-05
  (  3,  1,  6) (  3,  1,  6) (  3,  1,  6) (  3,  1,  5)


 OUTPUT CONTROL FOR STRESS PERIOD     16   TIME STEP     1
    SAVE HEAD FOR ALL LAYERS

 HEAD WILL BE SAVED ON UNIT   21 AT END OF TIME STEP     1 IN STRESS PERIOD     16
 
 SOLVING FOR HEAD 
    41 ITERATIONS FOR TIME STEP   2 IN STRESS PERIOD   16

 MAXIMUM HEAD CHANGE FOR EACH ITERATION:

    HEAD CHANGE   HEAD CHANGE   HEAD CHANGE   HEAD CHANGE   HEAD CHANGE
  LAYER,ROW,COL LAYER,ROW,COL LAYER,ROW,COL LAYER,ROW,COL LAYER,ROW,COL
 ----------------------------------------------------------------------
      2.171         2.581         2.187        -1.396        -3.064    
  (  3,  1,  1) (  3,  2,  8) (  3,  2,  1) (  3,  1, 10) (  3,  1,  1)
    -0.2179       -0.5484        -1.363        0.2751       -0.3314E-01
  (  3,  1, 10) (  3,  1,  1) (  3,  1, 10) (  3, 10,  1) (  2,  1,  1)
    -0.6043E-01   -0.1002E-01   -0.1760E-02   -0.1534E-02   -0.1982E-02
  (  2,  7,  1) (  2,  1,  2) (  3,  3,  6) (  3,  1,  1) (  3,  3,  8)
     0.1589E-02    0.9769E-03    0.2290E-02    0.1199E-02    0.2713E-02
  (  3, 10,  1) (  3,  8,  4) (  3,  1,  3) (  3, 10,  3) (  3,  1,  2)
     0.1369E-02    0.2646E-02    0.2364E-02    0.1640E-02    0.1198E-02
  (  3, 10, 10) (  3,  2,  2) (  3,  1,  1) (  3,  1,  6) (  3,  1,  1)
     0.7842E-03    0.8171E-03    0.5520E-03    0.3747E-03    0.2754E-03
  (  3,  1, 10) (  3,  2,  2) (  3,  1,  6) (  3,  1,  1) (  3,  1,  1)
     0.1766E-03    0.1880E-03    0.1274E-03    0.8570E-04    0.6266E-04
  (  3,  1,  1) (  3,  2,  2) (  3,  1,  1) (  3,  1,  6) (  3,  1,  8)
     0.4092E-04    0.4260E-04    0.2884E-04    0.1965E-04    0.1443E-04
  (  3,  1, 10) (  3,  2,  2) (  3,  1,  6) (  3,  1,  1) (  3,  1,  1)
     0.9291E-05
  (  3,  1,  1)


 OUTPUT CONTROL FOR STRESS PERIOD     16   TIME STEP     2
    SAVE HEAD FOR ALL LAYERS

 HEAD WILL BE SAVED ON UNIT   21 AT END OF TIME STEP     2 IN STRESS PERIOD     16
 
 SOLVING FOR HEAD 
    39 ITERATIONS FOR TIME STEP   3 IN STRESS PERIOD   16

 MAXIMUM HEAD CHANGE FOR EACH ITERATION:

    HEAD CHANGE   HEAD CHANGE   HEAD CHANGE   HEAD CHANGE   HEAD CHANGE
  LAYER,ROW,COL LAYER,ROW,COL LAYER,ROW,COL LAYER,ROW,COL LAYER,ROW,COL
 ----------------------------------------------------------------------
      1.682         2.073         1.935        -1.191        -3.099    
  (  3,  1,  1) (  3,  1, 10) (  3,  2,  1) (  3,  2, 10) (  3,  1,  1)
     0.1910       -0.3833        -1.018        0.5402        0.4072E-01
  (  2,  5,  1) (  3,  1,  1) (  3,  1, 10) (  3, 10,  1) (  2, 10, 10)
    -0.4680E-01   -0.1218E-01   -0.5995E-02   -0.2262E-02   -0.1653E-02
  (  2,  7,  1) (  2,  1,  2) (  3,  3,  7) (  3,  5,  7) (  3,  1, 10)
    -0.6411E-03    0.1560E-02    0.1673E-02    0.2662E-02    0.3085E-02
  (  2,  1, 10) (  3,  6,  2) (  3,  1,  1) (  3,  6,  2) (  3,  1,  1)
     0.1841E-02    0.2141E-02    0.1468E-02    0.9303E-03    0.6666E-03
  (  3,  1,  1) (  3,  2,  2) (  3,  1,  1) (  3,  1,  5) (  3,  1,  1)
     0.4089E-03    0.4584E-03    0.3128E-03    0.2016E-03    0.1451E-03
  (  3,  1, 10) (  3,  2,  2) (  3,  3,  3) (  3,  1,  1) (  3,  1,  1)
     0.8683E-04    0.9943E-04    0.6933E-04    0.4352E-04    0.3155E-04
  (  3,  1,  1) (  3,  2,  3) (  3,  3,  3) (  3,  1,  4) (  3,  3,  3)
     0.1912E-04    0.2153E-04    0.1497E-04    0.9417E-05
  (  3,  1, 10) (  3,  3,  3) (  3,  3,  3) (  3,  1,  1)


 OUTPUT CONTROL FOR STRESS PERIOD     16   TIME STEP     3
    SAVE HEAD FOR ALL LAYERS

 HEAD WILL BE SAVED ON UNIT   21 AT END OF TIME STEP     3 IN STRESS PERIOD     16
 
 SOLVING FOR HEAD 
    36 ITERATIONS FOR TIME STEP   4 IN STRESS PERIOD   16

 MAXIMUM HEAD CHANGE FOR EACH ITERATION:

    HEAD CHANGE   HEAD CHANGE   HEAD CHANGE   HEAD CHANGE   HEAD CHANGE
  LAYER,ROW,COL LAYER,ROW,COL LAYER,ROW,COL LAYER,ROW,COL LAYER,ROW,COL
 ----------------------------------------------------------------------
      1.238         1.554         1.501        -1.051        -2.977    
  (  3,  1,  1) (  3,  1, 10) (  3,  2,  1) (  3,  1, 10) (  3,  1,  1)
     0.2798        0.1155       -0.1674E-01   -0.1757E-01   -0.1332E-01
  (  3, 10, 10) (  3,  9,  7) (  3,  3,  6) (  3,  1,  9) (  3,  3,  6)
    -0.5715E-02   -0.8233E-02   -0.3410E-02   -0.2688E-02    0.2269E-02
  (  3,  1, 10) (  3,  3,  6) (  3,  5,  4) (  3,  3,  6) (  3,  1,  8)
     0.1769E-02    0.3537E-02    0.3006E-02    0.1933E-02    0.1346E-02
  (  3, 10, 10) (  3,  1, 10) (  3,  1,  7) (  3,  1,  8) (  3,  1,  1)
     0.7293E-03    0.9051E-03    0.6456E-03    0.3949E-03    0.2838E-03
  (  3,  1,  1) (  3,  2,  2) (  3,  1,  1) (  3,  1,  6) (  3,  1,  8)
     0.1491E-03    0.1868E-03    0.1326E-03    0.8297E-04    0.5686E-04
  (  3,  1,  7) (  3,  1,  1) (  3,  1,  6) (  3,  1,  8) (  3,  1,  6)
     0.3408E-04    0.3791E-04    0.2682E-04    0.1682E-04    0.1247E-04
  (  2,  7,  1) (  3,  1,  8) (  3,  1,  1) (  3,  1,  6) (  3,  1,  8)
     0.6037E-05
  (  3,  1,  7)


 OUTPUT CONTROL FOR STRESS PERIOD     16   TIME STEP     4
    SAVE HEAD FOR ALL LAYERS

 HEAD WILL BE SAVED ON UNIT   21 AT END OF TIME STEP     4 IN STRESS PERIOD     16
 
 SOLVING FOR HEAD 
    31 ITERATIONS FOR TIME STEP   5 IN STRESS PERIOD   16

 MAXIMUM HEAD CHANGE FOR EACH ITERATION:

    HEAD CHANGE   HEAD CHANGE   HEAD CHANGE   HEAD CHANGE   HEAD CHANGE
  LAYER,ROW,COL LAYER,ROW,COL LAYER,ROW,COL LAYER,ROW,COL LAYER,ROW,COL
 ----------------------------------------------------------------------
     0.8477         1.057         1.002        -1.048        -2.673    
  (  3,  1,  1) (  3,  1, 10) (  3,  2,  1) (  3,  2, 10) (  3,  1,  1)
     0.7529        0.4495        0.1388        0.7191E-01   -0.4857E-01
  (  3, 10,  1) (  3,  9,  3) (  2,  1,  8) (  2, 10,  1) (  2, 10, 10)
     0.7796E-01    0.1324E-01   -0.7124E-02   -0.3851E-02   -0.2585E-02
  (  2,  6,  1) (  2,  1,  2) (  3,  9,  4) (  3,  9,  5) (  3,  9,  3)
    -0.2438E-02   -0.1779E-02   -0.1338E-02   -0.7291E-03   -0.4856E-03
  (  2,  6,  1) (  3,  9,  3) (  3,  9,  4) (  3,  9,  4) (  3,  9,  5)
    -0.2032E-03   -0.3319E-03   -0.2532E-03   -0.1394E-03   -0.9388E-04
  (  3,  9,  1) (  3,  9,  3) (  3,  9,  4) (  3,  9,  6) (  3,  9,  3)
    -0.3939E-04   -0.6415E-04   -0.4844E-04   -0.2701E-04   -0.1848E-04
  (  3,  9,  6) (  3,  9,  4) (  3,  9,  5) (  3,  9,  4) (  3,  9,  6)
    -0.8159E-05
  (  3,  9,  3)


 OUTPUT CONTROL FOR STRESS PERIOD     16   TIME STEP     5
    SAVE HEAD FOR ALL LAYERS

 HEAD WILL BE SAVED ON UNIT   21 AT END OF TIME STEP     5 IN STRESS PERIOD     16
 
 SOLVING FOR HEAD 
    32 ITERATIONS FOR TIME STEP   6 IN STRESS PERIOD   16

 MAXIMUM HEAD CHANGE FOR EACH ITERATION:

    HEAD CHANGE   HEAD CHANGE   HEAD CHANGE   HEAD CHANGE   HEAD CHANGE
  LAYER,ROW,COL LAYER,ROW,COL LAYER,ROW,COL LAYER,ROW,COL LAYER,ROW,COL
 ----------------------------------------------------------------------
     0.5155        0.6088        0.4382        -1.153        -1.145    
  (  3,  1,  1) (  3,  2,  8) (  3,  3,  3) (  3,  1, 10) (  3,  1,  1)
     0.5071        0.2985        0.8232E-01    0.2763E-01   -0.2632E-01
  (  3,  1, 10) (  3,  2,  2) (  2,  1,  9) (  2, 10,  1) (  2, 10, 10)
     0.2672E-01   -0.1146E-01   -0.9313E-02   -0.4740E-02   -0.2871E-02
  (  2,  7,  1) (  3,  2,  7) (  3,  3,  6) (  3,  3,  6) (  3,  3,  6)
    -0.2513E-02   -0.1923E-02   -0.1643E-02   -0.8197E-03   -0.5218E-03
  (  2,  7,  1) (  3,  3,  6) (  3,  3,  6) (  3,  3,  6) (  3,  3,  6)
    -0.3943E-03   -0.3435E-03   -0.2874E-03   -0.1509E-03   -0.9302E-04
  (  2,  8,  1) (  3,  3,  6) (  3,  3,  6) (  3,  3,  6) (  3,  3,  6)
    -0.4151E-04   -0.6199E-04   -0.5295E-04   -0.2749E-04   -0.1792E-04
  (  2,  8,  1) (  3,  3,  6) (  3,  3,  6) (  3,  3,  6) (  3,  3,  6)
    -0.1132E-04   -0.3842E-05
  (  2,  8,  1) (  3,  3,  6)


 OUTPUT CONTROL FOR STRESS PERIOD     16   TIME STEP     6
    PRINT BUDGET
    PRINT HEAD FOR ALL LAYERS
    SAVE HEAD FOR ALL LAYERS
    SAVE DRAWDOWN FOR ALL LAYERS
1
              HEAD IN LAYER   1 AT END OF TIME STEP   6 IN STRESS PERIOD   16
  ---------------------------------------------------------------------------

           1       2       3       4       5       6       7       8       9      10
 ...................................................................................
   1    20.97   20.62   19.95   19.53   19.33   19.33   19.53   19.95   20.61   20.96
   2    19.95   19.44   19.02   18.72   18.57   18.56   18.71   19.01   19.43   19.94
   3    18.48   17.99   17.62   17.37   17.24   17.24   17.36   17.61   17.97   18.47
   4    16.48   16.05   15.75   15.56   15.46   15.46   15.55   15.74   16.04   16.47
   5    13.65   13.56   13.46   13.38   13.33   13.33   13.37   13.45   13.55   13.64
   6    11.15   11.12   11.08   11.05   11.02   11.02   11.04   11.08   11.12   11.14
   7     8.73    8.71    8.67    8.64    8.62    8.62    8.64    8.67    8.71    8.73
   8     6.38    6.33    6.24    6.15    6.10    6.10    6.15    6.24    6.33    6.38
   9     4.22    4.06    3.79    3.47    3.34    3.34    3.47    3.78    4.06    4.22
  10     2.66    2.28    1.44    0.00    0.00    0.00    0.00    1.44    2.27    2.66
1
              HEAD IN LAYER   2 AT END OF TIME STEP   6 IN STRESS PERIOD   16
  ---------------------------------------------------------------------------

           1       2       3       4       5       6       7       8       9      10
 ...................................................................................
   1    -1.29   -1.27   -1.27   -1.28   -1.29   -1.31   -1.33   -1.35   -1.38   -1.41
   2    -1.40   -0.29   -0.56   -1.04   -1.53   -1.90   -1.87   -1.54   -1.22   -1.59
   3    -1.55   -0.87   -1.33   -2.14   -3.30   -4.87   -4.48   -3.15   -2.22   -1.79
   4    -1.74   -1.25   -1.62   -2.22   -2.97   -3.82   -3.67   -2.96   -2.35   -1.99
   5    -1.96   -1.58   -1.73   -2.00   -2.29   -2.51   -2.54   -2.40   -2.25   -2.19
   6    -2.19   -1.89   -1.94   -2.06   -2.17   -2.26   -2.29   -2.28   -2.27   -2.39
   7    -2.43   -2.32   -2.35   -2.41   -2.47   -2.51   -2.53   -2.53   -2.53   -2.59
   8    -2.68   -2.89   -2.98   -3.05   -3.10   -3.12   -3.11   -3.07   -3.01   -2.80
   9    -2.92   -3.56   -3.78   -3.94   -4.01   -4.03   -3.97   -3.83   -3.63   -3.00
  10    -3.14   -3.19   -3.23   -3.26   -3.28   -3.29   -3.28   -3.26   -3.22   -3.19
1
              HEAD IN LAYER   3 AT END OF TIME STEP   6 IN STRESS PERIOD   16
  ---------------------------------------------------------------------------

           1       2       3       4       5       6       7       8       9      10
 ...................................................................................
   1   -19.23  -19.40  -19.71  -20.12  -20.56  -20.90  -21.06  -21.06  -20.98  -20.92
   2   -19.31  -19.57  -20.07  -20.80  -21.67  -22.44  -22.52  -22.11  -21.70  -21.47
   3   -19.10  -19.49  -20.31  -21.71  -23.94  -27.54  -26.69  -23.99  -22.52  -21.86
   4   -18.07  -18.38  -19.03  -20.04  -21.47  -23.33  -23.07  -21.72  -20.84  -20.41
   5   -16.45  -16.63  -16.96  -17.43  -17.96  -18.41  -18.50  -18.31  -18.10  -17.96
   6   -14.77  -14.85  -15.00  -15.20  -15.42  -15.59  -15.68  -15.68  -15.66  -15.63
   7   -13.31  -13.34  -13.41  -13.50  -13.60  -13.68  -13.74  -13.77  -13.78  -13.78
   8   -12.19  -12.21  -12.24  -12.29  -12.33  -12.37  -12.41  -12.43  -12.45  -12.45
   9   -11.45  -11.46  -11.48  -11.50  -11.53  -11.55  -11.57  -11.59  -11.60  -11.60
  10   -11.08  -11.08  -11.10  -11.11  -11.13  -11.15  -11.16  -11.17  -11.18  -11.19

 HEAD WILL BE SAVED ON UNIT   21 AT END OF TIME STEP     6 IN STRESS PERIOD     16

 DRAWDOWN WILL BE SAVED ON UNIT   22 AT END OF TIME STEP     6 IN STRESS PERIOD     16



  -------------------------------------------------------------------------------------
  VOLUMETRIC BUDGET FOR ENTIRE MODEL AT END OF TIME STEP    6 IN STRESS PERIOD     16
  -------------------------------------------------------------------------------------

     CUMULATIVE VOLUMES      L**3       RATES FOR THIS TIME STEP      L**3/T
     ------------------                 ------------------------

           IN:                                      IN:
           ---                                      ---
             STORAGE =    26320730.5346               STORAGE =        3933.2525
       CONSTANT HEAD =      182867.1985         CONSTANT HEAD =          78.6944
               WELLS =   164415000.0000                 WELLS =       30000.0000
    INST. IB STORAGE =    37402594.2895      INST. IB STORAGE =        5342.6890
    DELAY IB STORAGE =    85650047.5222      DELAY IB STORAGE =       16091.0365

            TOTAL IN =   313971239.5447              TOTAL IN =       55445.6724

          OUT:                                     OUT:
          ----                                     ----
             STORAGE =           0.0000               STORAGE =           0.0000
       CONSTANT HEAD =   149586293.2624         CONSTANT HEAD =       25445.6962
               WELLS =   164385000.0000                 WELLS =       30000.0000
    INST. IB STORAGE =       1.2438E-07      INST. IB STORAGE =       2.1341E-11
    DELAY IB STORAGE =       6.0573E-11      DELAY IB STORAGE =           0.0000

           TOTAL OUT =   313971293.2624             TOTAL OUT =       55445.6962

            IN - OUT =         -53.7176              IN - OUT =      -2.3861E-02

 PERCENT DISCREPANCY =          -0.00     PERCENT DISCREPANCY =          -0.00


          TIME SUMMARY AT END OF TIME STEP     6 IN STRESS PERIOD     16
                    SECONDS     MINUTES      HOURS       DAYS        YEARS
                    -----------------------------------------------------------
   TIME STEP LENGTH 9.18681E+06 1.53113E+05  2551.9      106.33     0.29111    
 STRESS PERIOD TIME 3.15619E+07 5.26032E+05  8767.2      365.30      1.0001    
         TOTAL TIME 4.73515E+08 7.89192E+06 1.31532E+05  5480.5      15.005    
 

                               VOLUMETRIC BUDGET FOR SYSTEMS OF DELAY INTERBEDS
                                          AT END OF TIME STEP  6 IN STRESS PERIOD 16

          |   C U M U L A T I V E   V O L U M E S   L**3           | R A T E S   F O R  T H I S  T I M E  S T E P   L**3/T  |
   SYSTEM |    CHANGE IN     BOUNDARY                    PERCENT   |    CHANGE IN     BOUNDARY                    PERCENT   |
   NUMBER |     STORAGE        FLOW           SUM      DISCREPANCY |     STORAGE        FLOW           SUM      DISCREPANCY |
  --------|--------------------------------------------------------|--------------------------------------------------------|
      1     66023.        -66023.       -0.14552E-10   -0.22041E-13     10.395        -10.395        0.10658E-13    0.10253E-12
      2    0.85584E+08   -0.85584E+08    0.29802E-07    0.34822E-13     16081.        -16081.       -0.18190E-11   -0.11312E-13
  --------|--------------------------------------------------------|--------------------------------------------------------|
 TOTALS:    0.85650E+08   -0.85650E+08    0.29802E-07    0.34795E-13     16091.        -16091.       -0.18190E-11   -0.11304E-13
1
                            STRESS PERIOD NO.     17, LENGTH =   365.3000    
                            -----------------------------------------------

                              NUMBER OF TIME STEPS =     6

                               MULTIPLIER FOR DELT =     1.300

                            INITIAL TIME STEP SIZE =   28.63744    

REUSING NON-PARAMETER WELLS FROM LAST STRESS PERIOD

14 WELLS
 
 SOLVING FOR HEAD 

    44 ITERATIONS FOR TIME STEP   1 IN STRESS PERIOD   17

 MAXIMUM HEAD CHANGE FOR EACH ITERATION:

    HEAD CHANGE   HEAD CHANGE   HEAD CHANGE   HEAD CHANGE   HEAD CHANGE
  LAYER,ROW,COL LAYER,ROW,COL LAYER,ROW,COL LAYER,ROW,COL LAYER,ROW,COL
 ----------------------------------------------------------------------
      2.633         2.976         2.195        -1.694        -2.838    
  (  3,  1,  1) (  3,  2,  8) (  3,  3,  3) (  3,  1, 10) (  3,  1,  1)
    -0.2662       -0.6602        -1.495        -1.049        0.7891    
  (  3,  1, 10) (  3,  1,  1) (  3,  1, 10) (  3,  2,  1) (  3,  1,  1)
    -0.7233E-01   -0.7462E-02   -0.4932E-02   -0.3478E-02   -0.1848E-02
  (  2,  7,  1) (  3,  2,  8) (  3,  3,  6) (  3,  3, 10) (  3,  1,  7)
    -0.1539E-02    0.5929E-03   -0.5276E-03    0.1284E-02    0.8029E-03
  (  3,  2, 10) (  3,  9, 10) (  3,  2, 10) (  3,  1,  1) (  3,  8, 10)
     0.1448E-02    0.1428E-02    0.1498E-02    0.2281E-02    0.1785E-02
  (  3,  1,  1) (  3,  1, 10) (  3, 10,  7) (  3,  3,  9) (  3,  1, 10)
     0.1278E-02    0.1056E-02    0.8284E-03    0.5677E-03    0.4509E-03
  (  3,  1, 10) (  3,  1, 10) (  3,  1, 10) (  3,  1, 10) (  3,  1, 10)
     0.2925E-03    0.2827E-03    0.1890E-03    0.1486E-03    0.1047E-03
  (  3,  1, 10) (  3,  1, 10) (  3,  1, 10) (  3,  1, 10) (  3,  1, 10)
     0.7872E-04    0.6376E-04    0.5054E-04    0.3425E-04    0.2781E-04
  (  3,  1, 10) (  3,  1, 10) (  3,  1, 10) (  3,  1, 10) (  3,  1, 10)
     0.1799E-04    0.1717E-04    0.1147E-04    0.7097E-05
  (  3,  1, 10) (  3,  1, 10) (  3,  1, 10) (  3,  1, 10)


 OUTPUT CONTROL FOR STRESS PERIOD     17   TIME STEP     1
    SAVE HEAD FOR ALL LAYERS

 HEAD WILL BE SAVED ON UNIT   21 AT END OF TIME STEP     1 IN STRESS PERIOD     17
 
 SOLVING FOR HEAD 
    41 ITERATIONS FOR TIME STEP   2 IN STRESS PERIOD   17

 MAXIMUM HEAD CHANGE FOR EACH ITERATION:

    HEAD CHANGE   HEAD CHANGE   HEAD CHANGE   HEAD CHANGE   HEAD CHANGE
  LAYER,ROW,COL LAYER,ROW,COL LAYER,ROW,COL LAYER,ROW,COL LAYER,ROW,COL
 ----------------------------------------------------------------------
      2.127         2.518         2.156        -1.352        -3.018    
  (  3,  1,  1) (  3,  2,  8) (  3,  2,  1) (  3,  2, 10) (  3,  1,  1)
    -0.2121       -0.5370        -1.335        0.2686       -0.3378E-01
  (  3,  1, 10) (  3,  1,  1) (  3,  1, 10) (  3, 10,  1) (  2,  1,  1)
    -0.5906E-01   -0.1032E-01   -0.1458E-02   -0.1516E-02   -0.1926E-02
  (  2,  7,  1) (  2,  1,  2) (  3,  9,  5) (  3,  1,  1) (  3,  1, 10)
     0.1573E-02    0.8522E-03    0.2243E-02    0.1217E-02    0.2668E-02
  (  3, 10,  1) (  3, 10,  4) (  3,  1,  3) (  3, 10,  8) (  3,  2,  1)
     0.1215E-02    0.2595E-02    0.2309E-02    0.1679E-02    0.1239E-02
  (  3, 10,  5) (  3,  2,  2) (  3,  1,  1) (  3,  2,  8) (  3,  2,  8)
     0.7720E-03    0.8372E-03    0.5782E-03    0.3920E-03    0.2860E-03
  (  3,  1, 10) (  3,  2,  8) (  3,  2,  8) (  3,  2,  8) (  3,  2,  8)
     0.1726E-03    0.1964E-03    0.1342E-03    0.9098E-04    0.6731E-04
  (  3,  1,  1) (  3,  2,  8) (  3,  2,  8) (  3,  2,  8) (  3,  2,  8)
     0.4011E-04    0.4517E-04    0.3137E-04    0.2149E-04    0.1570E-04
  (  3,  1, 10) (  3,  2,  8) (  3,  2,  8) (  3,  2,  8) (  3,  2,  8)
     0.9314E-05
  (  3,  2,  8)


 OUTPUT CONTROL FOR STRESS PERIOD     17   TIME STEP     2
    SAVE HEAD FOR ALL LAYERS

 HEAD WILL BE SAVED ON UNIT   21 AT END OF TIME STEP     2 IN STRESS PERIOD     17
 
 SOLVING FOR HEAD 
    39 ITERATIONS FOR TIME STEP   3 IN STRESS PERIOD   17

 MAXIMUM HEAD CHANGE FOR EACH ITERATION:

    HEAD CHANGE   HEAD CHANGE   HEAD CHANGE   HEAD CHANGE   HEAD CHANGE
  LAYER,ROW,COL LAYER,ROW,COL LAYER,ROW,COL LAYER,ROW,COL LAYER,ROW,COL
 ----------------------------------------------------------------------
      1.648         2.021         1.908        -1.152        -3.056    
  (  3,  1,  1) (  3,  1, 10) (  3,  2,  1) (  3,  2, 10) (  3,  1,  1)
     0.1891       -0.3747       -0.9958        0.5367        0.3948E-01
  (  2,  5,  1) (  3,  1,  1) (  3,  1, 10) (  3, 10,  1) (  2, 10, 10)
    -0.4572E-01   -0.1230E-01   -0.5773E-02   -0.2295E-02   -0.1571E-02
  (  2,  7,  1) (  2,  1,  2) (  3,  3,  7) (  3,  4,  7) (  3,  1, 10)
    -0.6533E-03    0.1538E-02    0.1602E-02    0.2652E-02    0.2987E-02
  (  2,  1, 10) (  3,  6,  2) (  3,  1,  1) (  3,  6,  3) (  3,  1,  1)
     0.1786E-02    0.2059E-02    0.1415E-02    0.8946E-03    0.6424E-03
  (  3,  1,  1) (  3,  2,  2) (  3,  1,  1) (  3,  1,  4) (  3,  1,  1)
     0.3936E-03    0.4420E-03    0.3002E-03    0.1944E-03    0.1410E-03
  (  3,  1, 10) (  3,  1,  1) (  3,  1,  5) (  3,  1,  1) (  3,  1,  1)
     0.8391E-04    0.9570E-04    0.6623E-04    0.4202E-04    0.3013E-04
  (  3,  1,  1) (  3,  2,  2) (  3,  1,  1) (  3,  1,  1) (  3,  1,  1)
     0.1837E-04    0.2072E-04    0.1398E-04    0.9084E-05
  (  3,  1, 10) (  3,  1,  1) (  3,  1,  5) (  3,  1,  1)


 OUTPUT CONTROL FOR STRESS PERIOD     17   TIME STEP     3
    SAVE HEAD FOR ALL LAYERS

 HEAD WILL BE SAVED ON UNIT   21 AT END OF TIME STEP     3 IN STRESS PERIOD     17
 
 SOLVING FOR HEAD 
    36 ITERATIONS FOR TIME STEP   4 IN STRESS PERIOD   17

 MAXIMUM HEAD CHANGE FOR EACH ITERATION:

    HEAD CHANGE   HEAD CHANGE   HEAD CHANGE   HEAD CHANGE   HEAD CHANGE
  LAYER,ROW,COL LAYER,ROW,COL LAYER,ROW,COL LAYER,ROW,COL LAYER,ROW,COL
 ----------------------------------------------------------------------
      1.212         1.514         1.479        -1.019        -2.941    
  (  3,  1,  1) (  3,  1, 10) (  3,  2,  1) (  3,  2, 10) (  3,  1,  1)
     0.2689        0.1105       -0.1525E-01   -0.1710E-01   -0.1297E-01
  (  3, 10, 10) (  3,  9,  7) (  3,  1, 10) (  3,  1,  9) (  3,  3,  6)
     0.6033E-02   -0.7912E-02   -0.3399E-02   -0.2525E-02    0.2305E-02
  (  2,  6,  1) (  3,  3,  6) (  3,  5,  4) (  3,  3,  6) (  3,  1,  9)
     0.1968E-02    0.3381E-02    0.2983E-02    0.1896E-02    0.1351E-02
  (  3, 10,  1) (  3,  1,  1) (  3,  1, 10) (  3,  1, 10) (  3,  1, 10)
     0.7218E-03    0.9243E-03    0.6250E-03    0.3972E-03    0.2795E-03
  (  3,  1, 10) (  3,  1, 10) (  3,  1,  1) (  3,  1, 10) (  3,  1, 10)
     0.1628E-03    0.1808E-03    0.1325E-03    0.8101E-04    0.5722E-04
  (  3,  1, 10) (  3,  1,  1) (  3,  1, 10) (  3,  1, 10) (  3,  1, 10)
     0.3342E-04    0.3908E-04    0.2584E-04    0.1689E-04    0.1213E-04
  (  2,  7,  1) (  3,  1, 10) (  3,  1,  1) (  3,  1, 10) (  3,  1, 10)
     0.6594E-05
  (  3,  1, 10)


 OUTPUT CONTROL FOR STRESS PERIOD     17   TIME STEP     4
    SAVE HEAD FOR ALL LAYERS

 HEAD WILL BE SAVED ON UNIT   21 AT END OF TIME STEP     4 IN STRESS PERIOD     17
 
 SOLVING FOR HEAD 
    31 ITERATIONS FOR TIME STEP   5 IN STRESS PERIOD   17

 MAXIMUM HEAD CHANGE FOR EACH ITERATION:

    HEAD CHANGE   HEAD CHANGE   HEAD CHANGE   HEAD CHANGE   HEAD CHANGE
  LAYER,ROW,COL LAYER,ROW,COL LAYER,ROW,COL LAYER,ROW,COL LAYER,ROW,COL
 ----------------------------------------------------------------------
     0.8303         1.029        0.9871        -1.022        -2.644    
  (  3,  1,  1) (  3,  1, 10) (  3,  2,  1) (  3,  2, 10) (  3,  1,  1)
     0.7449        0.4436        0.1389        0.7198E-01   -0.4874E-01
  (  3, 10,  1) (  3,  9,  3) (  2,  1,  8) (  2, 10,  1) (  2, 10, 10)
     0.7803E-01    0.1324E-01   -0.6964E-02   -0.3739E-02   -0.2530E-02
  (  2,  6,  1) (  2,  1,  2) (  3,  9,  4) (  3,  9,  5) (  3,  9,  3)
    -0.2414E-02   -0.1736E-02   -0.1304E-02   -0.7139E-03   -0.4702E-03
  (  2,  6,  1) (  3,  9,  3) (  3,  9,  3) (  3,  9,  4) (  3,  9,  5)
    -0.1989E-03   -0.3234E-03   -0.2477E-03   -0.1347E-03   -0.9202E-04
  (  3,  9,  1) (  3,  9,  3) (  3,  9,  4) (  3,  9,  5) (  3,  9,  3)
    -0.3824E-04   -0.6257E-04   -0.4694E-04   -0.2654E-04   -0.1779E-04
  (  3,  9,  6) (  3,  9,  4) (  3,  9,  4) (  3,  9,  4) (  3,  9,  6)
    -0.8019E-05
  (  3,  9,  4)


 OUTPUT CONTROL FOR STRESS PERIOD     17   TIME STEP     5
    SAVE HEAD FOR ALL LAYERS

 HEAD WILL BE SAVED ON UNIT   21 AT END OF TIME STEP     5 IN STRESS PERIOD     17
 
 SOLVING FOR HEAD 
    32 ITERATIONS FOR TIME STEP   6 IN STRESS PERIOD   17

 MAXIMUM HEAD CHANGE FOR EACH ITERATION:

    HEAD CHANGE   HEAD CHANGE   HEAD CHANGE   HEAD CHANGE   HEAD CHANGE
  LAYER,ROW,COL LAYER,ROW,COL LAYER,ROW,COL LAYER,ROW,COL LAYER,ROW,COL
 ----------------------------------------------------------------------
     0.5048        0.5925        0.4325        -1.130        -1.126    
  (  3,  1,  1) (  3,  2,  8) (  3,  3,  3) (  3,  1, 10) (  3,  1,  1)
     0.5028        0.2962        0.8187E-01    0.2750E-01   -0.2629E-01
  (  3,  1, 10) (  3,  2,  2) (  2,  1,  9) (  2, 10,  1) (  2, 10, 10)
     0.2675E-01   -0.1131E-01   -0.9159E-02   -0.4653E-02   -0.2810E-02
  (  2,  7,  1) (  3,  2,  7) (  3,  3,  6) (  3,  2,  7) (  3,  3,  6)
    -0.2498E-02   -0.1884E-02   -0.1609E-02   -0.7997E-03   -0.5080E-03
  (  2,  7,  1) (  3,  3,  6) (  3,  3,  6) (  3,  3,  6) (  3,  3,  6)
    -0.3904E-03   -0.3345E-03   -0.2799E-03   -0.1461E-03   -0.8965E-04
  (  2,  8,  1) (  3,  3,  6) (  3,  3,  6) (  3,  3,  6) (  3,  3,  6)
    -0.4141E-04   -0.5985E-04   -0.5113E-04   -0.2630E-04   -0.1708E-04
  (  2,  8,  1) (  3,  3,  6) (  3,  3,  6) (  3,  3,  6) (  3,  3,  6)
    -0.1125E-04   -0.3793E-05
  (  2,  8,  1) (  3,  2,  7)


 OUTPUT CONTROL FOR STRESS PERIOD     17   TIME STEP     6
    PRINT BUDGET
    PRINT HEAD FOR ALL LAYERS
    SAVE HEAD FOR ALL LAYERS
    SAVE DRAWDOWN FOR ALL LAYERS
1
              HEAD IN LAYER   1 AT END OF TIME STEP   6 IN STRESS PERIOD   17
  ---------------------------------------------------------------------------

           1       2       3       4       5       6       7       8       9      10
 ...................................................................................
   1    20.87   20.52   19.85   19.43   19.23   19.22   19.43   19.85   20.51   20.86
   2    19.85   19.34   18.92   18.62   18.47   18.46   18.61   18.91   19.34   19.84
   3    18.38   17.89   17.52   17.27   17.15   17.14   17.26   17.51   17.88   18.37
   4    16.39   15.96   15.66   15.47   15.37   15.37   15.46   15.65   15.95   16.38
   5    13.57   13.48   13.38   13.29   13.25   13.25   13.29   13.37   13.47   13.56
   6    11.07   11.05   11.01   10.97   10.95   10.95   10.97   11.00   11.04   11.07
   7     8.67    8.65    8.61    8.58    8.56    8.55    8.57    8.61    8.64    8.66
   8     6.33    6.28    6.19    6.10    6.05    6.05    6.10    6.19    6.28    6.33
   9     4.18    4.03    3.76    3.45    3.32    3.32    3.44    3.75    4.03    4.18
  10     2.64    2.26    1.43    0.00    0.00    0.00    0.00    1.43    2.25    2.64
1
              HEAD IN LAYER   2 AT END OF TIME STEP   6 IN STRESS PERIOD   17
  ---------------------------------------------------------------------------

           1       2       3       4       5       6       7       8       9      10
 ...................................................................................
   1    -1.61   -1.60   -1.60   -1.61   -1.62   -1.64   -1.65   -1.68   -1.70   -1.74
   2    -1.72   -0.64   -0.92   -1.40   -1.89   -2.27   -2.23   -1.90   -1.57   -1.91
   3    -1.87   -1.21   -1.68   -2.49   -3.66   -5.22   -4.83   -3.50   -2.57   -2.10
   4    -2.05   -1.58   -1.95   -2.55   -3.31   -4.15   -4.01   -3.30   -2.69   -2.30
   5    -2.26   -1.89   -2.05   -2.32   -2.61   -2.83   -2.85   -2.72   -2.56   -2.49
   6    -2.48   -2.18   -2.23   -2.35   -2.47   -2.55   -2.59   -2.58   -2.56   -2.68
   7    -2.72   -2.59   -2.62   -2.68   -2.74   -2.78   -2.80   -2.80   -2.80   -2.88
   8    -2.96   -3.14   -3.23   -3.30   -3.34   -3.37   -3.36   -3.33   -3.26   -3.08
   9    -3.19   -3.80   -4.01   -4.17   -4.25   -4.26   -4.21   -4.07   -3.87   -3.27
  10    -3.41   -3.45   -3.50   -3.53   -3.55   -3.55   -3.54   -3.52   -3.49   -3.45
1
              HEAD IN LAYER   3 AT END OF TIME STEP   6 IN STRESS PERIOD   17
  ---------------------------------------------------------------------------

           1       2       3       4       5       6       7       8       9      10
 ...................................................................................
   1   -19.86  -20.03  -20.34  -20.75  -21.19  -21.54  -21.70  -21.69  -21.62  -21.56
   2   -19.93  -20.19  -20.70  -21.43  -22.29  -23.07  -23.14  -22.74  -22.33  -22.10
   3   -19.70  -20.09  -20.92  -22.31  -24.54  -28.16  -27.30  -24.60  -23.13  -22.47
   4   -18.64  -18.96  -19.61  -20.62  -22.05  -23.92  -23.65  -22.30  -21.43  -21.00
   5   -17.00  -17.17  -17.51  -17.98  -18.51  -18.96  -19.05  -18.86  -18.65  -18.51
   6   -15.28  -15.36  -15.52  -15.72  -15.93  -16.10  -16.19  -16.20  -16.17  -16.15
   7   -13.78  -13.82  -13.89  -13.98  -14.08  -14.16  -14.22  -14.25  -14.26  -14.27
   8   -12.64  -12.66  -12.69  -12.74  -12.78  -12.83  -12.86  -12.89  -12.90  -12.91
   9   -11.88  -11.89  -11.91  -11.93  -11.96  -11.98  -12.00  -12.02  -12.03  -12.04
  10   -11.50  -11.51  -11.52  -11.53  -11.55  -11.57  -11.58  -11.60  -11.61  -11.61

 HEAD WILL BE SAVED ON UNIT   21 AT END OF TIME STEP     6 IN STRESS PERIOD     17

 DRAWDOWN WILL BE SAVED ON UNIT   22 AT END OF TIME STEP     6 IN STRESS PERIOD     17



  -------------------------------------------------------------------------------------
  VOLUMETRIC BUDGET FOR ENTIRE MODEL AT END OF TIME STEP    6 IN STRESS PERIOD     17
  -------------------------------------------------------------------------------------

     CUMULATIVE VOLUMES      L**3       RATES FOR THIS TIME STEP      L**3/T
     ------------------                 ------------------------

           IN:                                      IN:
           ---                                      ---
             STORAGE =    27739824.0675               STORAGE =        3852.7391
       CONSTANT HEAD =      212993.2300         CONSTANT HEAD =          84.9960
               WELLS =   175374000.0000                 WELLS =       30000.0000
    INST. IB STORAGE =    39347021.9157      INST. IB STORAGE =        5307.0026
    DELAY IB STORAGE =    91505120.3796      DELAY IB STORAGE =       15988.6576

            TOTAL IN =   334178959.5928              TOTAL IN =       55233.3953

          OUT:                                     OUT:
          ----                                     ----
             STORAGE =           0.0000               STORAGE =           0.0000
       CONSTANT HEAD =   158835020.3668         CONSTANT HEAD =       25233.4190
               WELLS =   175344000.0000                 WELLS =       30000.0000
    INST. IB STORAGE =       1.3636E-07      INST. IB STORAGE =       1.9673E-11
    DELAY IB STORAGE =       6.0573E-11      DELAY IB STORAGE =           0.0000

           TOTAL OUT =   334179020.3668             TOTAL OUT =       55233.4190

            IN - OUT =         -60.7740              IN - OUT =      -2.3701E-02

 PERCENT DISCREPANCY =          -0.00     PERCENT DISCREPANCY =          -0.00


          TIME SUMMARY AT END OF TIME STEP     6 IN STRESS PERIOD     17
                    SECONDS     MINUTES      HOURS       DAYS        YEARS
                    -----------------------------------------------------------
   TIME STEP LENGTH 9.18681E+06 1.53113E+05  2551.9      106.33     0.29111    
 STRESS PERIOD TIME 3.15619E+07 5.26032E+05  8767.2      365.30      1.0001    
         TOTAL TIME 5.05077E+08 8.41795E+06 1.40299E+05  5845.8      16.005    
 

                               VOLUMETRIC BUDGET FOR SYSTEMS OF DELAY INTERBEDS
                                          AT END OF TIME STEP  6 IN STRESS PERIOD 17

          |   C U M U L A T I V E   V O L U M E S   L**3           | R A T E S   F O R  T H I S  T I M E  S T E P   L**3/T  |
   SYSTEM |    CHANGE IN     BOUNDARY                    PERCENT   |    CHANGE IN     BOUNDARY                    PERCENT   |
   NUMBER |     STORAGE        FLOW           SUM      DISCREPANCY |     STORAGE        FLOW           SUM      DISCREPANCY |
  --------|--------------------------------------------------------|--------------------------------------------------------|
      1     69774.        -69774.       -0.14552E-10   -0.20856E-13     10.161        -10.161        0.35527E-14    0.34963E-13
      2    0.91435E+08   -0.91435E+08    0.29802E-07    0.32594E-13     15978.        -15978.        0.72760E-11    0.45536E-13
  --------|--------------------------------------------------------|--------------------------------------------------------|
 TOTALS:    0.91505E+08   -0.91505E+08    0.29802E-07    0.32569E-13     15989.        -15989.        0.72760E-11    0.45507E-13
1
                            STRESS PERIOD NO.     18, LENGTH =   365.3000    
                            -----------------------------------------------

                              NUMBER OF TIME STEPS =     6

                               MULTIPLIER FOR DELT =     1.300

                            INITIAL TIME STEP SIZE =   28.63744    

REUSING NON-PARAMETER WELLS FROM LAST STRESS PERIOD

14 WELLS
 
 SOLVING FOR HEAD 

    44 ITERATIONS FOR TIME STEP   1 IN STRESS PERIOD   18

 MAXIMUM HEAD CHANGE FOR EACH ITERATION:

    HEAD CHANGE   HEAD CHANGE   HEAD CHANGE   HEAD CHANGE   HEAD CHANGE
  LAYER,ROW,COL LAYER,ROW,COL LAYER,ROW,COL LAYER,ROW,COL LAYER,ROW,COL
 ----------------------------------------------------------------------
      2.580         2.907         2.169        -1.645        -2.795    
  (  3,  1,  1) (  3,  2,  8) (  3,  3,  3) (  3,  1, 10) (  3,  1,  1)
    -0.2596       -0.6479        -1.466        -1.059        0.8033    
  (  3,  1, 10) (  3,  1,  1) (  3,  1, 10) (  3,  2,  1) (  3,  1,  1)
    -0.6897E-01   -0.7407E-02   -0.4883E-02   -0.3484E-02   -0.2104E-02
  (  2,  7,  1) (  3,  3,  8) (  3,  1,  1) (  3,  3,  9) (  3,  1,  1)
    -0.1542E-02    0.7682E-03   -0.5533E-03    0.1429E-02    0.7456E-03
  (  3,  2, 10) (  3,  9, 10) (  3,  3, 10) (  3,  8,  8) (  3, 10, 10)
     0.1255E-02    0.1382E-02    0.1534E-02    0.2206E-02    0.1743E-02
  (  3, 10,  8) (  3,  1, 10) (  3,  9,  9) (  3,  3, 10) (  3,  1, 10)
     0.1248E-02    0.1029E-02    0.8090E-03    0.5526E-03    0.4405E-03
  (  3,  1, 10) (  3,  1, 10) (  3,  1, 10) (  3,  1, 10) (  3,  1, 10)
     0.2846E-03    0.2760E-03    0.1840E-03    0.1451E-03    0.1018E-03
  (  3,  1, 10) (  3,  1, 10) (  3,  1, 10) (  3,  1, 10) (  3,  1, 10)
     0.7685E-04    0.6208E-04    0.4935E-04    0.3330E-04    0.2717E-04
  (  3,  1, 10) (  3,  1, 10) (  3,  1, 10) (  3,  1, 10) (  3,  1, 10)
     0.1748E-04    0.1676E-04    0.1113E-04    0.5714E-05
  (  3,  1, 10) (  3,  1, 10) (  3,  1, 10) (  3,  1, 10)


 OUTPUT CONTROL FOR STRESS PERIOD     18   TIME STEP     1
    SAVE HEAD FOR ALL LAYERS

 HEAD WILL BE SAVED ON UNIT   21 AT END OF TIME STEP     1 IN STRESS PERIOD     18
 
 SOLVING FOR HEAD 
    41 ITERATIONS FOR TIME STEP   2 IN STRESS PERIOD   18

 MAXIMUM HEAD CHANGE FOR EACH ITERATION:

    HEAD CHANGE   HEAD CHANGE   HEAD CHANGE   HEAD CHANGE   HEAD CHANGE
  LAYER,ROW,COL LAYER,ROW,COL LAYER,ROW,COL LAYER,ROW,COL LAYER,ROW,COL
 ----------------------------------------------------------------------
      2.084         2.459         2.126        -1.312        -2.975    
  (  3,  1,  1) (  3,  2,  8) (  3,  2,  1) (  3,  2, 10) (  3,  1,  1)
    -0.2067       -0.5257        -1.308        0.2629       -0.3430E-01
  (  3,  1, 10) (  3,  1,  1) (  3,  1, 10) (  3, 10,  1) (  2,  1,  1)
    -0.5778E-01   -0.1058E-01   -0.1538E-02   -0.1484E-02   -0.1888E-02
  (  2,  7,  1) (  2,  1,  2) (  3,  9,  5) (  3,  1,  1) (  3,  1, 10)
     0.1517E-02    0.8277E-03    0.2123E-02    0.1194E-02    0.2554E-02
  (  3, 10,  1) (  3,  8,  1) (  3,  1,  2) (  3,  3,  4) (  3,  1,  1)
     0.1289E-02    0.2516E-02    0.2309E-02    0.1690E-02    0.1230E-02
  (  3,  3,  4) (  3,  2,  1) (  3,  2,  4) (  3,  2,  4) (  3,  2,  4)
     0.7435E-03    0.8437E-03    0.5848E-03    0.3915E-03    0.2877E-03
  (  3,  1, 10) (  3,  2,  4) (  3,  2,  4) (  3,  3,  4) (  3,  2,  4)
     0.1706E-03    0.1991E-03    0.1367E-03    0.9161E-04    0.6730E-04
  (  3,  1,  1) (  3,  2,  4) (  3,  3,  4) (  3,  2,  4) (  3,  3,  4)
     0.3867E-04    0.4577E-04    0.3180E-04    0.2165E-04    0.1581E-04
  (  3,  1, 10) (  3,  3,  4) (  3,  2,  4) (  3,  3,  4) (  3,  2,  4)
     0.9158E-05
  (  3,  3,  4)


 OUTPUT CONTROL FOR STRESS PERIOD     18   TIME STEP     2
    SAVE HEAD FOR ALL LAYERS

 HEAD WILL BE SAVED ON UNIT   21 AT END OF TIME STEP     2 IN STRESS PERIOD     18
 
 SOLVING FOR HEAD 
    39 ITERATIONS FOR TIME STEP   3 IN STRESS PERIOD   18

 MAXIMUM HEAD CHANGE FOR EACH ITERATION:

    HEAD CHANGE   HEAD CHANGE   HEAD CHANGE   HEAD CHANGE   HEAD CHANGE
  LAYER,ROW,COL LAYER,ROW,COL LAYER,ROW,COL LAYER,ROW,COL LAYER,ROW,COL
 ----------------------------------------------------------------------
      1.614         1.972         1.881        -1.118        -3.015    
  (  3,  1,  1) (  3,  1, 10) (  3,  2,  1) (  3,  2, 10) (  3,  1,  1)
     0.1872       -0.3665       -0.9747        0.5327        0.3826E-01
  (  2,  5,  1) (  3,  1,  1) (  3,  1, 10) (  3, 10,  1) (  2, 10, 10)
    -0.4468E-01   -0.1243E-01   -0.5571E-02   -0.2243E-02   -0.1499E-02
  (  2,  7,  1) (  2,  1,  2) (  3,  3,  7) (  3,  4,  7) (  3,  1, 10)
    -0.6536E-03    0.1552E-02    0.1528E-02    0.2671E-02    0.2893E-02
  (  2,  1, 10) (  3,  7, 10) (  3,  1,  1) (  3,  6,  4) (  3,  1,  1)
     0.1732E-02    0.1999E-02    0.1374E-02    0.8661E-03    0.6233E-03
  (  3,  1,  1) (  3,  2,  2) (  3,  1,  1) (  3,  1,  1) (  3,  1,  1)
     0.3793E-03    0.4286E-03    0.2905E-03    0.1887E-03    0.1365E-03
  (  3,  1, 10) (  3,  1,  1) (  3,  1,  5) (  3,  1,  1) (  3,  1,  1)
     0.8133E-04    0.9275E-04    0.6426E-04    0.4067E-04    0.2922E-04
  (  3,  1,  1) (  3,  2,  2) (  3,  1,  1) (  3,  1,  1) (  3,  1,  1)
     0.1768E-04    0.2007E-04    0.1350E-04    0.8807E-05
  (  3,  1, 10) (  3,  1,  1) (  3,  1,  5) (  3,  1,  1)


 OUTPUT CONTROL FOR STRESS PERIOD     18   TIME STEP     3
    SAVE HEAD FOR ALL LAYERS

 HEAD WILL BE SAVED ON UNIT   21 AT END OF TIME STEP     3 IN STRESS PERIOD     18
 
 SOLVING FOR HEAD 
    36 ITERATIONS FOR TIME STEP   4 IN STRESS PERIOD   18

 MAXIMUM HEAD CHANGE FOR EACH ITERATION:

    HEAD CHANGE   HEAD CHANGE   HEAD CHANGE   HEAD CHANGE   HEAD CHANGE
  LAYER,ROW,COL LAYER,ROW,COL LAYER,ROW,COL LAYER,ROW,COL LAYER,ROW,COL
 ----------------------------------------------------------------------
      1.188         1.477         1.458       -0.9898        -2.904    
  (  3,  1,  1) (  3,  1, 10) (  3,  2,  1) (  3,  2, 10) (  3,  1,  1)
     0.2588        0.1060       -0.1456E-01   -0.1663E-01   -0.1257E-01
  (  3, 10, 10) (  3,  9,  7) (  3,  1,  1) (  3,  1,  9) (  3,  3,  6)
     0.6421E-02   -0.7643E-02   -0.3368E-02   -0.2389E-02    0.2284E-02
  (  2,  6,  1) (  3,  3,  6) (  3,  5,  4) (  3,  3,  6) (  3,  1,  9)
     0.2002E-02    0.3314E-02    0.2897E-02    0.1841E-02    0.1307E-02
  (  3, 10,  1) (  3,  1,  1) (  3,  1, 10) (  3,  1, 10) (  3,  1, 10)
     0.6980E-03    0.8958E-03    0.6084E-03    0.3838E-03    0.2709E-03
  (  3,  1, 10) (  3,  1, 10) (  3,  1,  1) (  3,  1, 10) (  3,  1, 10)
     0.1569E-03    0.1758E-03    0.1280E-03    0.7844E-04    0.5527E-04
  (  3,  1, 10) (  3,  1,  1) (  3,  1, 10) (  3,  1, 10) (  3,  1,  4)
     0.3256E-04    0.3774E-04    0.2499E-04    0.1629E-04    0.1172E-04
  (  2,  7,  1) (  3,  1, 10) (  3,  1,  1) (  3,  1,  4) (  3,  1, 10)
     0.6140E-05
  (  3,  1, 10)


 OUTPUT CONTROL FOR STRESS PERIOD     18   TIME STEP     4
    SAVE HEAD FOR ALL LAYERS

 HEAD WILL BE SAVED ON UNIT   21 AT END OF TIME STEP     4 IN STRESS PERIOD     18
 
 SOLVING FOR HEAD 
    31 ITERATIONS FOR TIME STEP   5 IN STRESS PERIOD   18

 MAXIMUM HEAD CHANGE FOR EACH ITERATION:

    HEAD CHANGE   HEAD CHANGE   HEAD CHANGE   HEAD CHANGE   HEAD CHANGE
  LAYER,ROW,COL LAYER,ROW,COL LAYER,ROW,COL LAYER,ROW,COL LAYER,ROW,COL
 ----------------------------------------------------------------------
     0.8133         1.004        0.9732       -0.9975        -2.613    
  (  3,  1,  1) (  3,  1, 10) (  3,  2,  1) (  3,  2, 10) (  3,  1,  1)
     0.7353        0.4374        0.1385        0.7164E-01   -0.4846E-01
  (  3, 10,  1) (  3,  9,  3) (  2,  1,  8) (  2, 10,  1) (  2, 10, 10)
     0.7798E-01    0.1323E-01   -0.6664E-02   -0.3550E-02   -0.2388E-02
  (  2,  6,  1) (  2,  1,  2) (  3,  9,  6) (  3,  9,  6) (  3,  9,  5)
    -0.2343E-02   -0.1642E-02   -0.1223E-02   -0.6816E-03   -0.4468E-03
  (  2,  6,  1) (  3,  9,  6) (  3,  9,  5) (  3,  9,  6) (  3,  9,  6)
    -0.1872E-03   -0.3033E-03   -0.2361E-03   -0.1286E-03   -0.8683E-04
  (  3,  9,  6) (  3,  9,  6) (  3,  9,  6) (  3,  9,  6) (  3,  9,  6)
    -0.3667E-04   -0.5942E-04   -0.4454E-04   -0.2535E-04   -0.1707E-04
  (  3,  9,  6) (  3,  9,  6) (  3,  9,  6) (  3,  9,  6) (  3,  9,  6)
    -0.7667E-05
  (  3,  9,  6)


 OUTPUT CONTROL FOR STRESS PERIOD     18   TIME STEP     5
    SAVE HEAD FOR ALL LAYERS

 HEAD WILL BE SAVED ON UNIT   21 AT END OF TIME STEP     5 IN STRESS PERIOD     18
 
 SOLVING FOR HEAD 
    32 ITERATIONS FOR TIME STEP   6 IN STRESS PERIOD   18

 MAXIMUM HEAD CHANGE FOR EACH ITERATION:

    HEAD CHANGE   HEAD CHANGE   HEAD CHANGE   HEAD CHANGE   HEAD CHANGE
  LAYER,ROW,COL LAYER,ROW,COL LAYER,ROW,COL LAYER,ROW,COL LAYER,ROW,COL
 ----------------------------------------------------------------------
     0.4943        0.5774        0.4269        -1.104        -1.111    
  (  3,  1,  1) (  3,  2,  8) (  3,  3,  3) (  3,  1, 10) (  3,  1,  1)
     0.4957        0.2940        0.8135E-01    0.2729E-01   -0.2616E-01
  (  3,  1, 10) (  3,  2,  2) (  2,  1,  9) (  2, 10,  1) (  2, 10, 10)
     0.2672E-01   -0.1115E-01   -0.9029E-02   -0.4569E-02   -0.2771E-02
  (  2,  7,  1) (  3,  2,  6) (  3,  2,  4) (  3,  2,  7) (  3,  2,  6)
    -0.2471E-02   -0.1848E-02   -0.1577E-02   -0.7844E-03   -0.4955E-03
  (  2,  7,  1) (  3,  3,  6) (  3,  3,  6) (  3,  3,  6) (  3,  3,  6)
    -0.3877E-03   -0.3275E-03   -0.2741E-03   -0.1420E-03   -0.8745E-04
  (  2,  8,  1) (  3,  3,  6) (  3,  3,  6) (  3,  3,  6) (  3,  3,  6)
    -0.4101E-04   -0.5821E-04   -0.4960E-04   -0.2554E-04   -0.1642E-04
  (  2,  8,  1) (  3,  3,  6) (  3,  3,  6) (  3,  3,  6) (  3,  3,  6)
    -0.1118E-04   -0.3777E-05
  (  2,  8,  1) (  3,  2,  7)


 OUTPUT CONTROL FOR STRESS PERIOD     18   TIME STEP     6
    PRINT BUDGET
    PRINT HEAD FOR ALL LAYERS
    SAVE HEAD FOR ALL LAYERS
    SAVE DRAWDOWN FOR ALL LAYERS
1
              HEAD IN LAYER   1 AT END OF TIME STEP   6 IN STRESS PERIOD   18
  ---------------------------------------------------------------------------

           1       2       3       4       5       6       7       8       9      10
 ...................................................................................
   1    20.77   20.42   19.75   19.33   19.13   19.13   19.33   19.75   20.41   20.76
   2    19.75   19.25   18.82   18.52   18.37   18.37   18.52   18.81   19.24   19.74
   3    18.29   17.80   17.43   17.18   17.05   17.05   17.17   17.42   17.79   18.28
   4    16.31   15.87   15.57   15.38   15.28   15.28   15.37   15.56   15.86   16.30
   5    13.49   13.40   13.30   13.21   13.17   13.17   13.21   13.29   13.39   13.48
   6    11.00   10.97   10.94   10.90   10.88   10.88   10.90   10.93   10.97   11.00
   7     8.61    8.59    8.55    8.52    8.50    8.49    8.51    8.55    8.58    8.60
   8     6.28    6.23    6.15    6.06    6.01    6.01    6.06    6.14    6.23    6.28
   9     4.15    4.00    3.73    3.42    3.29    3.29    3.42    3.72    4.00    4.15
  10     2.62    2.24    1.41    0.00    0.00    0.00    0.00    1.41    2.24    2.62
1
              HEAD IN LAYER   2 AT END OF TIME STEP   6 IN STRESS PERIOD   18
  ---------------------------------------------------------------------------

           1       2       3       4       5       6       7       8       9      10
 ...................................................................................
   1    -1.94   -1.92   -1.92   -1.93   -1.94   -1.96   -1.98   -2.00   -2.03   -2.06
   2    -2.04   -0.99   -1.27   -1.75   -2.25   -2.62   -2.59   -2.26   -1.92   -2.23
   3    -2.18   -1.55   -2.03   -2.84   -4.00   -5.57   -5.18   -3.85   -2.91   -2.42
   4    -2.36   -1.90   -2.28   -2.88   -3.64   -4.49   -4.34   -3.63   -3.02   -2.60
   5    -2.56   -2.20   -2.36   -2.63   -2.92   -3.14   -3.17   -3.04   -2.87   -2.79
   6    -2.77   -2.48   -2.53   -2.64   -2.76   -2.85   -2.88   -2.87   -2.86   -2.97
   7    -3.00   -2.86   -2.89   -2.95   -3.01   -3.05   -3.07   -3.07   -3.07   -3.16
   8    -3.23   -3.40   -3.48   -3.55   -3.59   -3.62   -3.61   -3.58   -3.52   -3.36
   9    -3.46   -4.04   -4.25   -4.40   -4.48   -4.49   -4.44   -4.30   -4.11   -3.54
  10    -3.67   -3.72   -3.76   -3.79   -3.81   -3.81   -3.81   -3.78   -3.75   -3.72
1
              HEAD IN LAYER   3 AT END OF TIME STEP   6 IN STRESS PERIOD   18
  ---------------------------------------------------------------------------

           1       2       3       4       5       6       7       8       9      10
 ...................................................................................
   1   -20.48  -20.65  -20.96  -21.37  -21.81  -22.16  -22.32  -22.32  -22.24  -22.18
   2   -20.54  -20.80  -21.31  -22.04  -22.91  -23.68  -23.76  -23.36  -22.95  -22.71
   3   -20.30  -20.68  -21.51  -22.91  -25.14  -28.75  -27.90  -25.20  -23.73  -23.07
   4   -19.21  -19.53  -20.18  -21.19  -22.62  -24.49  -24.23  -22.88  -22.00  -21.57
   5   -17.54  -17.71  -18.05  -18.52  -19.05  -19.51  -19.59  -19.41  -19.19  -19.06
   6   -15.79  -15.87  -16.03  -16.23  -16.44  -16.62  -16.70  -16.71  -16.69  -16.66
   7   -14.26  -14.30  -14.37  -14.46  -14.56  -14.64  -14.70  -14.73  -14.75  -14.75
   8   -13.10  -13.11  -13.15  -13.19  -13.24  -13.28  -13.32  -13.34  -13.36  -13.36
   9   -12.32  -12.33  -12.34  -12.37  -12.40  -12.42  -12.44  -12.46  -12.47  -12.47
  10   -11.93  -11.93  -11.94  -11.96  -11.98  -12.00  -12.01  -12.03  -12.03  -12.04

 HEAD WILL BE SAVED ON UNIT   21 AT END OF TIME STEP     6 IN STRESS PERIOD     18

 DRAWDOWN WILL BE SAVED ON UNIT   22 AT END OF TIME STEP     6 IN STRESS PERIOD     18



  -------------------------------------------------------------------------------------
  VOLUMETRIC BUDGET FOR ENTIRE MODEL AT END OF TIME STEP    6 IN STRESS PERIOD     18
  -------------------------------------------------------------------------------------

     CUMULATIVE VOLUMES      L**3       RATES FOR THIS TIME STEP      L**3/T
     ------------------                 ------------------------

           IN:                                      IN:
           ---                                      ---
             STORAGE =    29130220.1614               STORAGE =        3775.4988
       CONSTANT HEAD =      245421.1227         CONSTANT HEAD =          91.2966
               WELLS =   186333000.0000                 WELLS =       30000.0000
    INST. IB STORAGE =    41278420.9984      INST. IB STORAGE =        5271.9865
    DELAY IB STORAGE =    97322937.0187      DELAY IB STORAGE =       15886.2601

            TOTAL IN =   354309999.3012              TOTAL IN =       55025.0419

          OUT:                                     OUT:
          ----                                     ----
             STORAGE =           0.0000               STORAGE =           0.0000
       CONSTANT HEAD =   168007066.6179         CONSTANT HEAD =       25025.0654
               WELLS =   186303000.0000                 WELLS =       30000.0000
    INST. IB STORAGE =       1.4837E-07      INST. IB STORAGE =       1.5191E-11
    DELAY IB STORAGE =       6.0573E-11      DELAY IB STORAGE =           0.0000

           TOTAL OUT =   354310066.6179             TOTAL OUT =       55025.0654

            IN - OUT =         -67.3167              IN - OUT =      -2.3444E-02

 PERCENT DISCREPANCY =          -0.00     PERCENT DISCREPANCY =          -0.00


          TIME SUMMARY AT END OF TIME STEP     6 IN STRESS PERIOD     18
                    SECONDS     MINUTES      HOURS       DAYS        YEARS
                    -----------------------------------------------------------
   TIME STEP LENGTH 9.18681E+06 1.53113E+05  2551.9      106.33     0.29111    
 STRESS PERIOD TIME 3.15619E+07 5.26032E+05  8767.2      365.30      1.0001    
         TOTAL TIME 5.36639E+08 8.94398E+06 1.49066E+05  6211.1      17.005    
 

                               VOLUMETRIC BUDGET FOR SYSTEMS OF DELAY INTERBEDS
                                          AT END OF TIME STEP  6 IN STRESS PERIOD 18

          |   C U M U L A T I V E   V O L U M E S   L**3           | R A T E S   F O R  T H I S  T I M E  S T E P   L**3/T  |
   SYSTEM |    CHANGE IN     BOUNDARY                    PERCENT   |    CHANGE IN     BOUNDARY                    PERCENT   |
   NUMBER |     STORAGE        FLOW           SUM      DISCREPANCY |     STORAGE        FLOW           SUM      DISCREPANCY |
  --------|--------------------------------------------------------|--------------------------------------------------------|
      1     73449.        -73449.       -0.14552E-10   -0.19812E-13     9.9474        -9.9474       -0.17764E-14   -0.17858E-13
      2    0.97249E+08   -0.97249E+08    0.29802E-07    0.30645E-13     15876.        -15876.        0.90949E-11    0.57286E-13
  --------|--------------------------------------------------------|--------------------------------------------------------|
 TOTALS:    0.97323E+08   -0.97323E+08    0.29802E-07    0.30622E-13     15886.        -15886.        0.90949E-11    0.57250E-13
1
                            STRESS PERIOD NO.     19, LENGTH =   365.3000    
                            -----------------------------------------------

                              NUMBER OF TIME STEPS =     6

                               MULTIPLIER FOR DELT =     1.300

                            INITIAL TIME STEP SIZE =   28.63744    

REUSING NON-PARAMETER WELLS FROM LAST STRESS PERIOD

14 WELLS
 
 SOLVING FOR HEAD 

    44 ITERATIONS FOR TIME STEP   1 IN STRESS PERIOD   19

 MAXIMUM HEAD CHANGE FOR EACH ITERATION:

    HEAD CHANGE   HEAD CHANGE   HEAD CHANGE   HEAD CHANGE   HEAD CHANGE
  LAYER,ROW,COL LAYER,ROW,COL LAYER,ROW,COL LAYER,ROW,COL LAYER,ROW,COL
 ----------------------------------------------------------------------
      2.529         2.843         2.143        -1.601        -2.753    
  (  3,  1,  1) (  3,  2,  8) (  3,  3,  3) (  3,  1, 10) (  3,  1,  1)
    -0.2534       -0.6351        -1.438        -1.061        0.8012    
  (  3,  1, 10) (  3,  1,  1) (  3,  1, 10) (  3,  3,  1) (  3,  1,  1)
    -0.6643E-01   -0.7249E-02   -0.4675E-02   -0.3444E-02   -0.1719E-02
  (  2,  7,  1) (  3,  3,  9) (  3,  3,  5) (  3,  3, 10) (  3,  1,  7)
    -0.1551E-02    0.8500E-03   -0.5914E-03    0.1460E-02    0.8780E-03
  (  3,  2, 10) (  3,  9, 10) (  3,  2, 10) (  3,  8,  6) (  3,  1,  2)
     0.1498E-02    0.1439E-02    0.1570E-02    0.2062E-02    0.1766E-02
  (  3, 10, 10) (  3,  1,  2) (  3, 10, 10) (  3,  2, 10) (  3,  1,  2)
     0.1185E-02    0.1122E-02    0.7993E-03    0.5795E-03    0.4349E-03
  (  3,  1,  3) (  3,  1,  2) (  3,  1,  3) (  3,  1,  3) (  3,  1,  2)
     0.2905E-03    0.2757E-03    0.1976E-03    0.1422E-03    0.1069E-03
  (  3,  1,  3) (  3,  1,  3) (  3,  1,  3) (  3,  1,  2) (  3,  1,  3)
     0.7246E-04    0.6746E-04    0.4829E-04    0.3522E-04    0.2641E-04
  (  3,  1,  3) (  3,  1,  3) (  3,  1,  3) (  3,  1,  3) (  3,  1,  2)
     0.1792E-04    0.1669E-04    0.1202E-04    0.7045E-05
  (  3,  1,  3) (  3,  1,  3) (  3,  1,  3) (  3,  1,  2)


 OUTPUT CONTROL FOR STRESS PERIOD     19   TIME STEP     1
    SAVE HEAD FOR ALL LAYERS

 HEAD WILL BE SAVED ON UNIT   21 AT END OF TIME STEP     1 IN STRESS PERIOD     19
 
 SOLVING FOR HEAD 
    42 ITERATIONS FOR TIME STEP   2 IN STRESS PERIOD   19

 MAXIMUM HEAD CHANGE FOR EACH ITERATION:

    HEAD CHANGE   HEAD CHANGE   HEAD CHANGE   HEAD CHANGE   HEAD CHANGE
  LAYER,ROW,COL LAYER,ROW,COL LAYER,ROW,COL LAYER,ROW,COL LAYER,ROW,COL
 ----------------------------------------------------------------------
      2.043         2.405         2.098        -1.275        -2.933    
  (  3,  1,  1) (  3,  2,  8) (  3,  3,  3) (  3,  2, 10) (  3,  1,  1)
    -0.2015       -0.5149        -1.283        0.2574       -0.3473E-01
  (  3,  1, 10) (  3,  1,  1) (  3,  1, 10) (  3, 10,  1) (  2,  1,  1)
    -0.5657E-01   -0.1081E-01   -0.1694E-02   -0.1462E-02   -0.1851E-02
  (  2,  7,  1) (  2,  1,  2) (  3,  9,  4) (  3,  1,  1) (  3,  1, 10)
     0.1522E-02    0.9935E-03    0.2138E-02    0.1361E-02    0.2460E-02
  (  3, 10,  1) (  3,  9, 10) (  3,  6,  7) (  3,  3,  1) (  3,  1,  5)
     0.1435E-02    0.2458E-02    0.2319E-02    0.1731E-02    0.1292E-02
  (  3,  2,  1) (  3,  6,  7) (  3,  2,  1) (  3,  2,  1) (  3,  3,  1)
     0.7760E-03    0.8606E-03    0.5908E-03    0.4122E-03    0.3031E-03
  (  3,  2,  1) (  3,  2,  1) (  3,  2,  1) (  3,  3,  1) (  3,  2,  1)
     0.1783E-03    0.1996E-03    0.1416E-03    0.9555E-04    0.7148E-04
  (  3,  2,  1) (  3,  2,  1) (  3,  3,  1) (  3,  2,  1) (  3,  3,  1)
     0.4367E-04    0.4669E-04    0.3224E-04    0.2297E-04    0.1684E-04
  (  3,  2,  1) (  3,  2,  1) (  3,  2,  1) (  3,  3,  1) (  3,  2,  1)
     0.1014E-04    0.7353E-05
  (  3,  2,  1) (  3,  2,  1)


 OUTPUT CONTROL FOR STRESS PERIOD     19   TIME STEP     2
    SAVE HEAD FOR ALL LAYERS

 HEAD WILL BE SAVED ON UNIT   21 AT END OF TIME STEP     2 IN STRESS PERIOD     19
 
 SOLVING FOR HEAD 
    39 ITERATIONS FOR TIME STEP   3 IN STRESS PERIOD   19

 MAXIMUM HEAD CHANGE FOR EACH ITERATION:

    HEAD CHANGE   HEAD CHANGE   HEAD CHANGE   HEAD CHANGE   HEAD CHANGE
  LAYER,ROW,COL LAYER,ROW,COL LAYER,ROW,COL LAYER,ROW,COL LAYER,ROW,COL
 ----------------------------------------------------------------------
      1.582         1.927         1.856        -1.086        -2.976    
  (  3,  1,  1) (  3,  1, 10) (  3,  2,  1) (  3,  2, 10) (  3,  1,  1)
     0.1854       -0.3586       -0.9550        0.5303        0.3720E-01
  (  2,  5,  1) (  3,  1,  1) (  3,  1, 10) (  3, 10,  1) (  2, 10, 10)
    -0.4371E-01   -0.1253E-01   -0.5384E-02   -0.2333E-02   -0.1454E-02
  (  2,  7,  1) (  2,  1,  2) (  3,  3,  7) (  3,  4,  7) (  3,  1, 10)
    -0.6617E-03    0.1644E-02    0.1460E-02    0.2696E-02    0.2806E-02
  (  2,  1, 10) (  3,  7,  1) (  3,  1,  1) (  3,  6,  3) (  3,  1,  1)
     0.1682E-02    0.1942E-02    0.1334E-02    0.8398E-03    0.6049E-03
  (  3,  1,  1) (  3,  2,  2) (  3,  1,  1) (  3,  1,  1) (  3,  1,  1)
     0.3646E-03    0.4159E-03    0.2811E-03    0.1832E-03    0.1322E-03
  (  3,  1, 10) (  3,  1,  1) (  3,  1,  5) (  3,  1,  1) (  3,  1,  1)
     0.7894E-04    0.8999E-04    0.6237E-04    0.3938E-04    0.2836E-04
  (  3,  1,  1) (  3,  2,  2) (  3,  1,  1) (  3,  1,  1) (  3,  1,  1)
     0.1688E-04    0.1944E-04    0.1302E-04    0.8541E-05
  (  3,  1, 10) (  3,  1,  1) (  3,  1,  4) (  3,  1,  1)


 OUTPUT CONTROL FOR STRESS PERIOD     19   TIME STEP     3
    SAVE HEAD FOR ALL LAYERS

 HEAD WILL BE SAVED ON UNIT   21 AT END OF TIME STEP     3 IN STRESS PERIOD     19
 
 SOLVING FOR HEAD 
    36 ITERATIONS FOR TIME STEP   4 IN STRESS PERIOD   19

 MAXIMUM HEAD CHANGE FOR EACH ITERATION:

    HEAD CHANGE   HEAD CHANGE   HEAD CHANGE   HEAD CHANGE   HEAD CHANGE
  LAYER,ROW,COL LAYER,ROW,COL LAYER,ROW,COL LAYER,ROW,COL LAYER,ROW,COL
 ----------------------------------------------------------------------
      1.164         1.443         1.439       -0.9683        -2.866    
  (  3,  1,  1) (  3,  1, 10) (  3,  2,  1) (  3,  2, 10) (  3,  1,  1)
     0.2500        0.1020       -0.1386E-01   -0.1618E-01   -0.1215E-01
  (  3, 10, 10) (  3,  9,  7) (  3,  1,  1) (  3,  1,  9) (  3,  3,  6)
     0.6883E-02   -0.7341E-02   -0.3487E-02   -0.2212E-02    0.2270E-02
  (  2,  6,  1) (  3,  3,  6) (  3,  4,  4) (  3,  3,  6) (  3,  1,  9)
     0.2034E-02    0.3248E-02    0.2819E-02    0.1773E-02    0.1270E-02
  (  3, 10,  1) (  3,  1,  1) (  3,  1, 10) (  3,  1,  9) (  3,  1,  3)
     0.6697E-03    0.8656E-03    0.5917E-03    0.3715E-03    0.2594E-03
  (  3,  1, 10) (  3,  1, 10) (  3,  1,  1) (  3,  1, 10) (  3,  1, 10)
     0.1511E-03    0.1709E-03    0.1239E-03    0.7487E-04    0.5408E-04
  (  3,  1, 10) (  3,  1,  1) (  3,  1, 10) (  3,  1, 10) (  3,  1,  3)
     0.3202E-04    0.3621E-04    0.2410E-04    0.1586E-04    0.1110E-04
  (  2,  7,  1) (  3,  1, 10) (  3,  1,  4) (  3,  1,  3) (  3,  1, 10)
     0.5731E-05
  (  2,  6,  1)


 OUTPUT CONTROL FOR STRESS PERIOD     19   TIME STEP     4
    SAVE HEAD FOR ALL LAYERS

 HEAD WILL BE SAVED ON UNIT   21 AT END OF TIME STEP     4 IN STRESS PERIOD     19
 
 SOLVING FOR HEAD 
    31 ITERATIONS FOR TIME STEP   5 IN STRESS PERIOD   19

 MAXIMUM HEAD CHANGE FOR EACH ITERATION:

    HEAD CHANGE   HEAD CHANGE   HEAD CHANGE   HEAD CHANGE   HEAD CHANGE
  LAYER,ROW,COL LAYER,ROW,COL LAYER,ROW,COL LAYER,ROW,COL LAYER,ROW,COL
 ----------------------------------------------------------------------
     0.7969        0.9801        0.9600       -0.9756        -2.583    
  (  3,  1,  1) (  3,  1, 10) (  3,  2,  1) (  3,  2, 10) (  3,  1,  1)
     0.7278        0.4319        0.1383        0.7144E-01   -0.4846E-01
  (  3, 10,  1) (  3,  9,  3) (  2,  1,  8) (  2, 10,  1) (  2, 10, 10)
     0.7788E-01    0.1323E-01   -0.6437E-02   -0.3365E-02   -0.2264E-02
  (  2,  6,  1) (  2,  1,  2) (  3,  8,  4) (  3,  9,  7) (  3,  9,  7)
    -0.2339E-02   -0.1559E-02   -0.1168E-02   -0.6436E-03   -0.4202E-03
  (  2,  6,  1) (  3,  9,  7) (  3,  8,  3) (  3,  9,  7) (  3,  9,  7)
    -0.1779E-03   -0.2847E-03   -0.2216E-03   -0.1198E-03   -0.8099E-04
  (  3, 10,  3) (  3,  9,  7) (  3,  9,  7) (  3,  9,  7) (  3,  9,  7)
    -0.3438E-04   -0.5555E-04   -0.4107E-04   -0.2348E-04   -0.1574E-04
  (  3,  9,  8) (  3,  9,  7) (  3,  9,  7) (  3,  9,  7) (  3,  9,  7)
    -0.7089E-05
  (  3,  9,  7)


 OUTPUT CONTROL FOR STRESS PERIOD     19   TIME STEP     5
    SAVE HEAD FOR ALL LAYERS

 HEAD WILL BE SAVED ON UNIT   21 AT END OF TIME STEP     5 IN STRESS PERIOD     19
 
 SOLVING FOR HEAD 
    32 ITERATIONS FOR TIME STEP   6 IN STRESS PERIOD   19

 MAXIMUM HEAD CHANGE FOR EACH ITERATION:

    HEAD CHANGE   HEAD CHANGE   HEAD CHANGE   HEAD CHANGE   HEAD CHANGE
  LAYER,ROW,COL LAYER,ROW,COL LAYER,ROW,COL LAYER,ROW,COL LAYER,ROW,COL
 ----------------------------------------------------------------------
     0.4841        0.5633        0.4214        -1.084        -1.093    
  (  3,  1,  1) (  3,  2,  8) (  3,  3,  3) (  3,  1, 10) (  3,  1,  1)
     0.4918        0.2917        0.8092E-01    0.2705E-01   -0.2611E-01
  (  3,  1, 10) (  3,  2,  2) (  2,  1,  9) (  2, 10,  1) (  2, 10, 10)
     0.2674E-01   -0.1104E-01   -0.8898E-02   -0.4531E-02   -0.2731E-02
  (  2,  7,  1) (  3,  2,  6) (  3,  2,  5) (  3,  2,  7) (  3,  2,  6)
    -0.2451E-02   -0.1826E-02   -0.1558E-02   -0.7693E-03   -0.4891E-03
  (  2,  7,  1) (  3,  2,  6) (  3,  3,  6) (  3,  3,  6) (  3,  3,  6)
    -0.3852E-03   -0.3228E-03   -0.2684E-03   -0.1398E-03   -0.8520E-04
  (  2,  8,  1) (  3,  2,  7) (  3,  3,  6) (  3,  3,  6) (  3,  3,  6)
    -0.4095E-04   -0.5709E-04   -0.4869E-04   -0.2475E-04   -0.1609E-04
  (  2,  8,  1) (  3,  3,  6) (  3,  3,  6) (  3,  3,  6) (  3,  3,  6)
    -0.1104E-04   -0.3771E-05
  (  2,  8,  1) (  3,  2,  7)


 OUTPUT CONTROL FOR STRESS PERIOD     19   TIME STEP     6
    PRINT BUDGET
    PRINT HEAD FOR ALL LAYERS
    SAVE HEAD FOR ALL LAYERS
    SAVE DRAWDOWN FOR ALL LAYERS
1
              HEAD IN LAYER   1 AT END OF TIME STEP   6 IN STRESS PERIOD   19
  ---------------------------------------------------------------------------

           1       2       3       4       5       6       7       8       9      10
 ...................................................................................
   1    20.68   20.32   19.66   19.24   19.03   19.03   19.23   19.65   20.32   20.67
   2    19.66   19.15   18.73   18.43   18.27   18.27   18.42   18.72   19.14   19.65
   3    18.20   17.70   17.33   17.08   16.96   16.96   17.08   17.32   17.69   18.19
   4    16.22   15.78   15.48   15.29   15.20   15.19   15.28   15.47   15.77   16.21
   5    13.41   13.32   13.22   13.13   13.09   13.09   13.13   13.21   13.31   13.40
   6    10.93   10.90   10.86   10.83   10.81   10.81   10.83   10.86   10.90   10.92
   7     8.55    8.53    8.49    8.46    8.44    8.44    8.46    8.49    8.52    8.54
   8     6.24    6.19    6.10    6.01    5.96    5.96    6.01    6.10    6.18    6.24
   9     4.12    3.97    3.70    3.39    3.26    3.26    3.39    3.69    3.97    4.12
  10     2.60    2.22    1.40    0.00    0.00    0.00    0.00    1.40    2.22    2.59
1
              HEAD IN LAYER   2 AT END OF TIME STEP   6 IN STRESS PERIOD   19
  ---------------------------------------------------------------------------

           1       2       3       4       5       6       7       8       9      10
 ...................................................................................
   1    -2.25   -2.24   -2.24   -2.25   -2.26   -2.28   -2.30   -2.32   -2.35   -2.38
   2    -2.35   -1.33   -1.61   -2.10   -2.60   -2.97   -2.94   -2.61   -2.27   -2.54
   3    -2.49   -1.89   -2.37   -3.18   -4.34   -5.91   -5.52   -4.19   -3.25   -2.73
   4    -2.66   -2.23   -2.61   -3.21   -3.96   -4.81   -4.67   -3.96   -3.34   -2.91
   5    -2.85   -2.51   -2.67   -2.94   -3.23   -3.45   -3.48   -3.35   -3.18   -3.09
   6    -3.06   -2.76   -2.82   -2.93   -3.05   -3.14   -3.17   -3.16   -3.15   -3.26
   7    -3.28   -3.13   -3.16   -3.22   -3.28   -3.32   -3.34   -3.34   -3.35   -3.45
   8    -3.51   -3.65   -3.73   -3.80   -3.85   -3.87   -3.86   -3.83   -3.77   -3.63
   9    -3.73   -4.28   -4.48   -4.64   -4.71   -4.73   -4.67   -4.54   -4.35   -3.81
  10    -3.94   -3.98   -4.02   -4.05   -4.07   -4.08   -4.07   -4.05   -4.02   -3.98
1
              HEAD IN LAYER   3 AT END OF TIME STEP   6 IN STRESS PERIOD   19
  ---------------------------------------------------------------------------

           1       2       3       4       5       6       7       8       9      10
 ...................................................................................
   1   -21.08  -21.25  -21.57  -21.98  -22.42  -22.77  -22.93  -22.93  -22.85  -22.79
   2   -21.14  -21.40  -21.91  -22.64  -23.51  -24.28  -24.36  -23.96  -23.55  -23.32
   3   -20.88  -21.27  -22.10  -23.50  -25.73  -29.34  -28.49  -25.79  -24.32  -23.66
   4   -19.78  -20.09  -20.74  -21.76  -23.19  -25.06  -24.79  -23.45  -22.57  -22.14
   5   -18.08  -18.25  -18.59  -19.06  -19.59  -20.04  -20.13  -19.95  -19.73  -19.60
   6   -16.30  -16.38  -16.53  -16.74  -16.95  -17.12  -17.21  -17.22  -17.20  -17.17
   7   -14.74  -14.78  -14.85  -14.94  -15.04  -15.12  -15.18  -15.21  -15.23  -15.23
   8   -13.55  -13.57  -13.61  -13.65  -13.70  -13.74  -13.78  -13.80  -13.82  -13.82
   9   -12.76  -12.77  -12.79  -12.81  -12.84  -12.86  -12.88  -12.90  -12.91  -12.92
  10   -12.36  -12.37  -12.38  -12.39  -12.41  -12.43  -12.45  -12.46  -12.47  -12.47

 HEAD WILL BE SAVED ON UNIT   21 AT END OF TIME STEP     6 IN STRESS PERIOD     19

 DRAWDOWN WILL BE SAVED ON UNIT   22 AT END OF TIME STEP     6 IN STRESS PERIOD     19



  -------------------------------------------------------------------------------------
  VOLUMETRIC BUDGET FOR ENTIRE MODEL AT END OF TIME STEP    6 IN STRESS PERIOD     19
  -------------------------------------------------------------------------------------

     CUMULATIVE VOLUMES      L**3       RATES FOR THIS TIME STEP      L**3/T
     ------------------                 ------------------------

           IN:                                      IN:
           ---                                      ---
             STORAGE =    30493085.8370               STORAGE =        3701.3940
       CONSTANT HEAD =      280149.7363         CONSTANT HEAD =          97.5927
               WELLS =   197292000.0000                 WELLS =       30000.0000
    INST. IB STORAGE =    43197030.5825      INST. IB STORAGE =        5237.4337
    DELAY IB STORAGE =   103103483.8850      DELAY IB STORAGE =       15784.0277

            TOTAL IN =   374365750.0408              TOTAL IN =       54820.4482

          OUT:                                     OUT:
          ----                                     ----
             STORAGE =           0.0000               STORAGE =           0.0000
       CONSTANT HEAD =   177103828.9323         CONSTANT HEAD =       24820.4717
               WELLS =   197262000.0000                 WELLS =       30000.0000
    INST. IB STORAGE =       1.6154E-07      INST. IB STORAGE =       2.2949E-11
    DELAY IB STORAGE =       6.1549E-11      DELAY IB STORAGE =       9.1770E-15

           TOTAL OUT =   374365828.9323             TOTAL OUT =       54820.4717

            IN - OUT =         -78.8915              IN - OUT =      -2.3439E-02

 PERCENT DISCREPANCY =          -0.00     PERCENT DISCREPANCY =          -0.00


          TIME SUMMARY AT END OF TIME STEP     6 IN STRESS PERIOD     19
                    SECONDS     MINUTES      HOURS       DAYS        YEARS
                    -----------------------------------------------------------
   TIME STEP LENGTH 9.18681E+06 1.53113E+05  2551.9      106.33     0.29111    
 STRESS PERIOD TIME 3.15619E+07 5.26032E+05  8767.2      365.30      1.0001    
         TOTAL TIME 5.68201E+08 9.47002E+06 1.57834E+05  6576.4      18.005    
 

                               VOLUMETRIC BUDGET FOR SYSTEMS OF DELAY INTERBEDS
                                          AT END OF TIME STEP  6 IN STRESS PERIOD 19

          |   C U M U L A T I V E   V O L U M E S   L**3           | R A T E S   F O R  T H I S  T I M E  S T E P   L**3/T  |
   SYSTEM |    CHANGE IN     BOUNDARY                    PERCENT   |    CHANGE IN     BOUNDARY                    PERCENT   |
   NUMBER |     STORAGE        FLOW           SUM      DISCREPANCY |     STORAGE        FLOW           SUM      DISCREPANCY |
  --------|--------------------------------------------------------|--------------------------------------------------------|
      1     77049.        -77049.       -0.14552E-10   -0.18887E-13     9.7295        -9.7295         0.0000         0.0000    
      2    0.10303E+09   -0.10303E+09    0.14901E-07    0.14463E-13     15774.        -15774.        0.14552E-10    0.92251E-13
  --------|--------------------------------------------------------|--------------------------------------------------------|
 TOTALS:    0.10310E+09   -0.10310E+09    0.14901E-07    0.14453E-13     15784.        -15784.        0.14552E-10    0.92194E-13
1
                            STRESS PERIOD NO.     20, LENGTH =   365.3000    
                            -----------------------------------------------

                              NUMBER OF TIME STEPS =     6

                               MULTIPLIER FOR DELT =     1.300

                            INITIAL TIME STEP SIZE =   28.63744    

REUSING NON-PARAMETER WELLS FROM LAST STRESS PERIOD

14 WELLS
 
 SOLVING FOR HEAD 

    44 ITERATIONS FOR TIME STEP   1 IN STRESS PERIOD   20

 MAXIMUM HEAD CHANGE FOR EACH ITERATION:

    HEAD CHANGE   HEAD CHANGE   HEAD CHANGE   HEAD CHANGE   HEAD CHANGE
  LAYER,ROW,COL LAYER,ROW,COL LAYER,ROW,COL LAYER,ROW,COL LAYER,ROW,COL
 ----------------------------------------------------------------------
      2.480         2.783         2.118        -1.560        -2.713    
  (  3,  1,  1) (  3,  2,  8) (  3,  3,  3) (  3,  1, 10) (  3,  1,  1)
    -0.2476       -0.6228        -1.411        -1.065        0.8029    
  (  3,  1, 10) (  3,  1,  1) (  3,  1, 10) (  3,  3,  1) (  3,  1,  1)
    -0.6099E-01   -0.7259E-02   -0.4587E-02   -0.3446E-02   -0.1653E-02
  (  2,  7,  1) (  3,  3,  7) (  3,  3,  6) (  3,  3,  7) (  3,  1,  7)
    -0.1561E-02    0.6713E-03   -0.6231E-03    0.1487E-02    0.7978E-03
  (  3,  2, 10) (  3,  9, 10) (  3,  2, 10) (  3,  8,  2) (  3,  1,  2)
     0.1227E-02    0.1372E-02    0.1656E-02    0.1936E-02    0.1637E-02
  (  3,  8,  1) (  3,  1,  2) (  3, 10,  7) (  3,  1,  8) (  3,  1,  2)
     0.1092E-02    0.1051E-02    0.7363E-03    0.5322E-03    0.4029E-03
  (  3,  1,  2) (  3,  1,  2) (  3,  1,  2) (  3,  1,  2) (  3,  1,  2)
     0.2661E-03    0.2539E-03    0.1819E-03    0.1314E-03    0.9734E-04
  (  3,  1,  2) (  3,  1,  2) (  3,  1,  2) (  3,  1,  2) (  3,  1,  2)
     0.6624E-04    0.6270E-04    0.4427E-04    0.3197E-04    0.2439E-04
  (  3,  1,  2) (  3,  1,  2) (  3,  1,  2) (  3,  1,  2) (  3,  1,  2)
     0.1620E-04    0.1526E-04    0.1094E-04    0.5463E-05
  (  3,  1,  2) (  3,  1,  2) (  3,  1,  2) (  3,  1,  2)


 OUTPUT CONTROL FOR STRESS PERIOD     20   TIME STEP     1
    SAVE HEAD FOR ALL LAYERS

 HEAD WILL BE SAVED ON UNIT   21 AT END OF TIME STEP     1 IN STRESS PERIOD     20
 
 SOLVING FOR HEAD 
    42 ITERATIONS FOR TIME STEP   2 IN STRESS PERIOD   20

 MAXIMUM HEAD CHANGE FOR EACH ITERATION:

    HEAD CHANGE   HEAD CHANGE   HEAD CHANGE   HEAD CHANGE   HEAD CHANGE
  LAYER,ROW,COL LAYER,ROW,COL LAYER,ROW,COL LAYER,ROW,COL LAYER,ROW,COL
 ----------------------------------------------------------------------
      2.003         2.354         2.083        -1.242        -2.888    
  (  3,  1,  1) (  3,  2,  8) (  3,  2,  1) (  3,  2, 10) (  3,  1,  1)
    -0.1970       -0.5102        -1.262        0.2500       -0.3523E-01
  (  3,  1, 10) (  3,  1,  1) (  3,  1, 10) (  3, 10,  1) (  2,  1,  1)
    -0.5564E-01   -0.1094E-01   -0.1527E-02   -0.1203E-02   -0.1767E-02
  (  2,  7,  1) (  2,  1,  2) (  3,  9,  7) (  3,  3,  1) (  3,  1, 10)
     0.1468E-02    0.8586E-03    0.2179E-02    0.1076E-02    0.2425E-02
  (  3, 10,  1) (  3,  9,  5) (  3,  5, 10) (  3,  1,  2) (  3,  2,  8)
     0.1319E-02    0.2469E-02    0.2245E-02    0.1657E-02    0.1235E-02
  (  3,  1,  2) (  3,  2,  2) (  3,  1,  1) (  3,  1,  2) (  3,  1,  2)
     0.7657E-03    0.8083E-03    0.5495E-03    0.3900E-03    0.2855E-03
  (  3,  1,  2) (  3,  1,  2) (  3,  1,  2) (  3,  1,  2) (  3,  1,  2)
     0.1794E-03    0.1841E-03    0.1322E-03    0.8979E-04    0.6702E-04
  (  3,  1,  2) (  3,  1,  2) (  3,  1,  2) (  3,  1,  2) (  3,  1,  2)
     0.4220E-04    0.4368E-04    0.2986E-04    0.2135E-04    0.1567E-04
  (  3,  1,  2) (  3,  1,  2) (  3,  1,  2) (  3,  1,  2) (  3,  1,  2)
     0.1000E-04    0.5693E-05
  (  3,  1,  2) (  3,  1,  2)


 OUTPUT CONTROL FOR STRESS PERIOD     20   TIME STEP     2
    SAVE HEAD FOR ALL LAYERS

 HEAD WILL BE SAVED ON UNIT   21 AT END OF TIME STEP     2 IN STRESS PERIOD     20
 
 SOLVING FOR HEAD 
    39 ITERATIONS FOR TIME STEP   3 IN STRESS PERIOD   20

 MAXIMUM HEAD CHANGE FOR EACH ITERATION:

    HEAD CHANGE   HEAD CHANGE   HEAD CHANGE   HEAD CHANGE   HEAD CHANGE
  LAYER,ROW,COL LAYER,ROW,COL LAYER,ROW,COL LAYER,ROW,COL LAYER,ROW,COL
 ----------------------------------------------------------------------
      1.551         1.885         1.832        -1.058        -2.938    
  (  3,  1,  1) (  3,  1, 10) (  3,  2,  1) (  3,  2, 10) (  3,  1,  1)
     0.1836       -0.3511       -0.9365        0.5265        0.3607E-01
  (  2,  5,  1) (  3,  1,  1) (  3,  1, 10) (  3, 10,  1) (  2, 10, 10)
    -0.4281E-01   -0.1264E-01   -0.5267E-02   -0.2385E-02   -0.1323E-02
  (  2,  7,  1) (  2,  1,  2) (  3,  2,  7) (  3,  4, 10) (  3,  1,  6)
    -0.6662E-03    0.1714E-02    0.1433E-02    0.2672E-02    0.2771E-02
  (  2,  1, 10) (  3,  8, 10) (  3,  1, 10) (  3,  6,  3) (  3,  1, 10)
     0.1630E-02    0.1900E-02    0.1299E-02    0.8426E-03    0.5979E-03
  (  3,  1,  1) (  3,  2,  2) (  3,  1,  1) (  3,  1, 10) (  3,  1, 10)
     0.3740E-03    0.4046E-03    0.2817E-03    0.1785E-03    0.1312E-03
  (  3,  1, 10) (  3,  1,  1) (  3,  1, 10) (  3,  1, 10) (  3,  1, 10)
     0.7654E-04    0.8845E-04    0.6122E-04    0.3990E-04    0.2837E-04
  (  3,  1,  1) (  3,  1, 10) (  3,  4,  2) (  3,  1, 10) (  3,  1, 10)
     0.1785E-04    0.1884E-04    0.1328E-04    0.8471E-05
  (  3,  1, 10) (  3,  1,  1) (  3,  1, 10) (  3,  1, 10)


 OUTPUT CONTROL FOR STRESS PERIOD     20   TIME STEP     3
    SAVE HEAD FOR ALL LAYERS

 HEAD WILL BE SAVED ON UNIT   21 AT END OF TIME STEP     3 IN STRESS PERIOD     20
 
 SOLVING FOR HEAD 
    36 ITERATIONS FOR TIME STEP   4 IN STRESS PERIOD   20

 MAXIMUM HEAD CHANGE FOR EACH ITERATION:

    HEAD CHANGE   HEAD CHANGE   HEAD CHANGE   HEAD CHANGE   HEAD CHANGE
  LAYER,ROW,COL LAYER,ROW,COL LAYER,ROW,COL LAYER,ROW,COL LAYER,ROW,COL
 ----------------------------------------------------------------------
      1.141         1.412         1.422       -0.9434        -2.835    
  (  3,  1,  1) (  3,  1, 10) (  3,  2,  1) (  3,  2, 10) (  3,  1,  1)
     0.2425        0.9879E-01   -0.1337E-01   -0.1576E-01   -0.1181E-01
  (  3, 10, 10) (  3,  9,  7) (  3,  1,  1) (  3,  1,  9) (  3,  3,  6)
     0.7285E-02   -0.7102E-02   -0.3430E-02   -0.2087E-02    0.2223E-02
  (  2,  6,  1) (  3,  3,  6) (  3,  4,  4) (  3,  3,  6) (  3,  1,  9)
     0.1995E-02    0.3164E-02    0.2745E-02    0.1723E-02    0.1232E-02
  (  3, 10,  1) (  3,  1,  1) (  3,  1, 10) (  3,  1,  9) (  3,  1,  3)
     0.6482E-03    0.8411E-03    0.5755E-03    0.3607E-03    0.2512E-03
  (  3,  1, 10) (  3,  1, 10) (  3,  1,  1) (  3,  1, 10) (  3,  1, 10)
     0.1464E-03    0.1664E-03    0.1203E-03    0.7237E-04    0.5250E-04
  (  3,  1, 10) (  3,  1,  1) (  3,  1, 10) (  3,  1, 10) (  3,  1,  3)
     0.3022E-04    0.3507E-04    0.2356E-04    0.1539E-04    0.1067E-04
  (  2,  8,  1) (  3,  1, 10) (  3,  1,  4) (  3,  1,  3) (  3,  1, 10)
     0.5473E-05
  (  2,  6,  1)


 OUTPUT CONTROL FOR STRESS PERIOD     20   TIME STEP     4
    SAVE HEAD FOR ALL LAYERS

 HEAD WILL BE SAVED ON UNIT   21 AT END OF TIME STEP     4 IN STRESS PERIOD     20
 
 SOLVING FOR HEAD 
    31 ITERATIONS FOR TIME STEP   5 IN STRESS PERIOD   20

 MAXIMUM HEAD CHANGE FOR EACH ITERATION:

    HEAD CHANGE   HEAD CHANGE   HEAD CHANGE   HEAD CHANGE   HEAD CHANGE
  LAYER,ROW,COL LAYER,ROW,COL LAYER,ROW,COL LAYER,ROW,COL LAYER,ROW,COL
 ----------------------------------------------------------------------
     0.7811        0.9581        0.9474       -0.9555        -2.554    
  (  3,  1,  1) (  3,  1, 10) (  3,  2,  1) (  3,  2, 10) (  3,  1,  1)
     0.7202        0.4266        0.1379        0.7125E-01   -0.4847E-01
  (  3, 10,  1) (  3,  9,  3) (  2,  1,  8) (  2, 10,  1) (  2, 10, 10)
     0.7768E-01    0.1320E-01   -0.6310E-02   -0.3303E-02   -0.2195E-02
  (  2,  6,  1) (  2,  1,  2) (  3,  8,  4) (  3,  8,  1) (  3,  8,  2)
    -0.2319E-02   -0.1511E-02   -0.1154E-02   -0.6185E-03   -0.4016E-03
  (  2,  6,  1) (  3,  9,  3) (  3,  8,  3) (  3,  8,  3) (  3,  9,  8)
    -0.1805E-03   -0.2753E-03   -0.2156E-03   -0.1136E-03   -0.7613E-04
  (  3, 10,  4) (  3,  8,  3) (  3,  8,  4) (  3,  9,  8) (  3,  8,  3)
    -0.3315E-04   -0.5203E-04   -0.3963E-04   -0.2162E-04   -0.1483E-04
  (  3, 10,  5) (  3,  9,  8) (  3,  8,  3) (  3,  8,  3) (  3,  9,  8)
    -0.6427E-05
  (  3,  9,  8)


 OUTPUT CONTROL FOR STRESS PERIOD     20   TIME STEP     5
    SAVE HEAD FOR ALL LAYERS

 HEAD WILL BE SAVED ON UNIT   21 AT END OF TIME STEP     5 IN STRESS PERIOD     20
 
 SOLVING FOR HEAD 
    32 ITERATIONS FOR TIME STEP   6 IN STRESS PERIOD   20

 MAXIMUM HEAD CHANGE FOR EACH ITERATION:

    HEAD CHANGE   HEAD CHANGE   HEAD CHANGE   HEAD CHANGE   HEAD CHANGE
  LAYER,ROW,COL LAYER,ROW,COL LAYER,ROW,COL LAYER,ROW,COL LAYER,ROW,COL
 ----------------------------------------------------------------------
     0.4743        0.5502        0.4162        -1.066        -1.076    
  (  3,  1,  1) (  3,  2,  8) (  3,  3,  3) (  3,  1, 10) (  3,  1,  1)
     0.4879        0.2898        0.8049E-01    0.2690E-01   -0.2605E-01
  (  3,  1, 10) (  3,  2,  2) (  2,  1,  9) (  2, 10,  1) (  2, 10, 10)
     0.2674E-01   -0.1094E-01   -0.8825E-02   -0.4492E-02   -0.2706E-02
  (  2,  7,  1) (  3,  2,  6) (  3,  2,  4) (  3,  2,  7) (  3,  2,  6)
    -0.2433E-02   -0.1810E-02   -0.1539E-02   -0.7581E-03   -0.4818E-03
  (  2,  7,  1) (  3,  2,  6) (  3,  3,  6) (  3,  3,  6) (  3,  3,  6)
    -0.3830E-03   -0.3198E-03   -0.2643E-03   -0.1374E-03   -0.8346E-04
  (  2,  8,  1) (  3,  2,  7) (  3,  3,  6) (  3,  3,  6) (  3,  3,  6)
    -0.4070E-04   -0.5599E-04   -0.4779E-04   -0.2415E-04   -0.1570E-04
  (  2,  8,  1) (  3,  3,  6) (  3,  3,  6) (  3,  3,  6) (  3,  3,  6)
    -0.1098E-04   -0.3713E-05
  (  2,  8,  1) (  3,  2,  7)


 OUTPUT CONTROL FOR STRESS PERIOD     20   TIME STEP     6
    PRINT BUDGET
    PRINT HEAD FOR ALL LAYERS
    SAVE HEAD FOR ALL LAYERS
    SAVE DRAWDOWN FOR ALL LAYERS
1
              HEAD IN LAYER   1 AT END OF TIME STEP   6 IN STRESS PERIOD   20
  ---------------------------------------------------------------------------

           1       2       3       4       5       6       7       8       9      10
 ...................................................................................
   1    20.58   20.23   19.56   19.14   18.93   18.93   19.14   19.56   20.22   20.57
   2    19.56   19.06   18.63   18.33   18.18   18.18   18.33   18.63   19.05   19.56
   3    18.11   17.61   17.24   16.99   16.87   16.86   16.99   17.23   17.60   18.10
   4    16.13   15.70   15.40   15.21   15.11   15.11   15.20   15.39   15.69   16.12
   5    13.33   13.24   13.14   13.05   13.01   13.01   13.05   13.13   13.23   13.32
   6    10.86   10.83   10.80   10.76   10.74   10.74   10.76   10.79   10.83   10.85
   7     8.49    8.47    8.43    8.40    8.38    8.38    8.40    8.43    8.46    8.49
   8     6.19    6.14    6.06    5.97    5.92    5.92    5.97    6.05    6.14    6.19
   9     4.09    3.94    3.67    3.37    3.24    3.24    3.36    3.67    3.93    4.08
  10     2.57    2.20    1.39    0.00    0.00    0.00    0.00    1.39    2.20    2.57
1
              HEAD IN LAYER   2 AT END OF TIME STEP   6 IN STRESS PERIOD   20
  ---------------------------------------------------------------------------

           1       2       3       4       5       6       7       8       9      10
 ...................................................................................
   1    -2.57   -2.56   -2.56   -2.57   -2.58   -2.60   -2.62   -2.64   -2.66   -2.69
   2    -2.66   -1.67   -1.96   -2.44   -2.94   -3.31   -3.28   -2.95   -2.61   -2.85
   3    -2.80   -2.22   -2.70   -3.51   -4.68   -6.25   -5.86   -4.53   -3.58   -3.03
   4    -2.96   -2.54   -2.93   -3.53   -4.29   -5.14   -4.99   -4.28   -3.66   -3.21
   5    -3.15   -2.81   -2.97   -3.25   -3.53   -3.76   -3.79   -3.65   -3.49   -3.38
   6    -3.35   -3.05   -3.10   -3.22   -3.34   -3.43   -3.46   -3.45   -3.44   -3.55
   7    -3.56   -3.40   -3.43   -3.49   -3.55   -3.59   -3.61   -3.61   -3.62   -3.73
   8    -3.78   -3.91   -3.98   -4.05   -4.10   -4.12   -4.11   -4.08   -4.03   -3.91
   9    -4.00   -4.52   -4.72   -4.87   -4.95   -4.96   -4.91   -4.78   -4.59   -4.08
  10    -4.20   -4.25   -4.28   -4.31   -4.33   -4.34   -4.33   -4.31   -4.28   -4.25
1
              HEAD IN LAYER   3 AT END OF TIME STEP   6 IN STRESS PERIOD   20
  ---------------------------------------------------------------------------

           1       2       3       4       5       6       7       8       9      10
 ...................................................................................
   1   -21.68  -21.85  -22.16  -22.58  -23.02  -23.37  -23.53  -23.53  -23.45  -23.39
   2   -21.73  -21.98  -22.50  -23.23  -24.10  -24.88  -24.96  -24.55  -24.15  -23.91
   3   -21.46  -21.84  -22.68  -24.08  -26.31  -29.92  -29.07  -26.37  -24.90  -24.24
   4   -20.33  -20.65  -21.30  -22.32  -23.75  -25.62  -25.35  -24.01  -23.13  -22.70
   5   -18.61  -18.78  -19.12  -19.59  -20.13  -20.58  -20.67  -20.48  -20.27  -20.14
   6   -16.80  -16.88  -17.04  -17.24  -17.46  -17.63  -17.72  -17.73  -17.71  -17.68
   7   -15.23  -15.26  -15.33  -15.43  -15.52  -15.61  -15.67  -15.70  -15.71  -15.71
   8   -14.01  -14.03  -14.07  -14.11  -14.16  -14.20  -14.24  -14.26  -14.28  -14.28
   9   -13.20  -13.21  -13.23  -13.26  -13.28  -13.31  -13.33  -13.35  -13.36  -13.36
  10   -12.80  -12.80  -12.81  -12.83  -12.85  -12.87  -12.88  -12.90  -12.91  -12.91

 HEAD WILL BE SAVED ON UNIT   21 AT END OF TIME STEP     6 IN STRESS PERIOD     20

 DRAWDOWN WILL BE SAVED ON UNIT   22 AT END OF TIME STEP     6 IN STRESS PERIOD     20



  -------------------------------------------------------------------------------------
  VOLUMETRIC BUDGET FOR ENTIRE MODEL AT END OF TIME STEP    6 IN STRESS PERIOD     20
  -------------------------------------------------------------------------------------

     CUMULATIVE VOLUMES      L**3       RATES FOR THIS TIME STEP      L**3/T
     ------------------                 ------------------------

           IN:                                      IN:
           ---                                      ---
             STORAGE =    31829527.7313               STORAGE =        3630.2551
       CONSTANT HEAD =      317176.7443         CONSTANT HEAD =         103.8811
               WELLS =   208251000.0000                 WELLS =       30000.0000
    INST. IB STORAGE =    45103001.2517      INST. IB STORAGE =        5203.0706
    DELAY IB STORAGE =   108846852.1904      DELAY IB STORAGE =       15682.2604

            TOTAL IN =   394347557.9177              TOTAL IN =       54619.4672

          OUT:                                     OUT:
          ----                                     ----
             STORAGE =           0.0000               STORAGE =           0.0000
       CONSTANT HEAD =   186126647.9965         CONSTANT HEAD =       24619.4899
               WELLS =   208221000.0000                 WELLS =       30000.0000
    INST. IB STORAGE =       1.7291E-07      INST. IB STORAGE =       1.5508E-11
    DELAY IB STORAGE =       6.5235E-11      DELAY IB STORAGE =           0.0000

           TOTAL OUT =   394347647.9965             TOTAL OUT =       54619.4899

            IN - OUT =         -90.0789              IN - OUT =      -2.2678E-02

 PERCENT DISCREPANCY =          -0.00     PERCENT DISCREPANCY =          -0.00


          TIME SUMMARY AT END OF TIME STEP     6 IN STRESS PERIOD     20
                    SECONDS     MINUTES      HOURS       DAYS        YEARS
                    -----------------------------------------------------------
   TIME STEP LENGTH 9.18681E+06 1.53113E+05  2551.9      106.33     0.29111    
 STRESS PERIOD TIME 3.15619E+07 5.26032E+05  8767.2      365.30      1.0001    
         TOTAL TIME 5.99763E+08 9.99605E+06 1.66601E+05  6941.7      19.005    
 

                               VOLUMETRIC BUDGET FOR SYSTEMS OF DELAY INTERBEDS
                                          AT END OF TIME STEP  6 IN STRESS PERIOD 20

          |   C U M U L A T I V E   V O L U M E S   L**3           | R A T E S   F O R  T H I S  T I M E  S T E P   L**3/T  |
   SYSTEM |    CHANGE IN     BOUNDARY                    PERCENT   |    CHANGE IN     BOUNDARY                    PERCENT   |
   NUMBER |     STORAGE        FLOW           SUM      DISCREPANCY |     STORAGE        FLOW           SUM      DISCREPANCY |
  --------|--------------------------------------------------------|--------------------------------------------------------|
      1     80578.        -80578.       -0.14552E-10   -0.18059E-13     9.5253        -9.5253       -0.35527E-14   -0.37298E-13
      2    0.10877E+09   -0.10877E+09    0.29802E-07    0.27400E-13     15673.        -15673.       -0.36380E-11   -0.23212E-13
  --------|--------------------------------------------------------|--------------------------------------------------------|
 TOTALS:    0.10885E+09   -0.10885E+09    0.29802E-07    0.27380E-13     15682.        -15682.       -0.36380E-11   -0.23198E-13
1
                            STRESS PERIOD NO.     21, LENGTH =   365.3000    
                            -----------------------------------------------

                              NUMBER OF TIME STEPS =     6

                               MULTIPLIER FOR DELT =     1.300

                            INITIAL TIME STEP SIZE =   28.63744    

REUSING NON-PARAMETER WELLS FROM LAST STRESS PERIOD

14 WELLS
 
 SOLVING FOR HEAD 

    44 ITERATIONS FOR TIME STEP   1 IN STRESS PERIOD   21

 MAXIMUM HEAD CHANGE FOR EACH ITERATION:

    HEAD CHANGE   HEAD CHANGE   HEAD CHANGE   HEAD CHANGE   HEAD CHANGE
  LAYER,ROW,COL LAYER,ROW,COL LAYER,ROW,COL LAYER,ROW,COL LAYER,ROW,COL
 ----------------------------------------------------------------------
      2.432         2.727         2.094        -1.523        -2.675    
  (  3,  1,  1) (  3,  2,  8) (  3,  3,  3) (  3,  1, 10) (  3,  1,  1)
    -0.2422       -0.6112        -1.386        -1.053        0.7945    
  (  3,  1, 10) (  3,  1,  1) (  3,  1, 10) (  3,  3,  1) (  3,  1,  1)
    -0.5966E-01   -0.7042E-02   -0.4464E-02   -0.3343E-02   -0.1594E-02
  (  2,  7,  1) (  3,  3,  7) (  3,  3,  6) (  3,  3, 10) (  3,  1,  7)
    -0.1533E-02    0.6096E-03   -0.6350E-03    0.1418E-02    0.8493E-03
  (  3,  2, 10) (  3,  9,  4) (  3,  8, 10) (  3,  8,  1) (  3,  1,  1)
     0.1214E-02    0.1319E-02    0.1670E-02    0.1877E-02    0.1608E-02
  (  3,  8,  1) (  3,  1,  1) (  3, 10,  9) (  3,  1,  9) (  3,  1,  1)
     0.1100E-02    0.1094E-02    0.7175E-03    0.5545E-03    0.3984E-03
  (  3,  1,  1) (  3,  1,  1) (  3,  1,  1) (  3,  1,  1) (  3,  1,  1)
     0.2903E-03    0.2513E-03    0.1908E-03    0.1280E-03    0.1020E-03
  (  3,  1,  1) (  3,  2,  2) (  3,  1,  1) (  3,  1,  1) (  3,  1,  1)
     0.6679E-04    0.6543E-04    0.4247E-04    0.3375E-04    0.2369E-04
  (  3,  1,  1) (  3,  1,  1) (  3,  1,  1) (  3,  1,  1) (  3,  1,  1)
     0.1791E-04    0.1469E-04    0.1159E-04    0.4433E-05
  (  3,  1,  1) (  3,  2,  2) (  3,  1,  1) (  3,  1,  1)


 OUTPUT CONTROL FOR STRESS PERIOD     21   TIME STEP     1
    SAVE HEAD FOR ALL LAYERS

 HEAD WILL BE SAVED ON UNIT   21 AT END OF TIME STEP     1 IN STRESS PERIOD     21
 
 SOLVING FOR HEAD 
    41 ITERATIONS FOR TIME STEP   2 IN STRESS PERIOD   21

 MAXIMUM HEAD CHANGE FOR EACH ITERATION:

    HEAD CHANGE   HEAD CHANGE   HEAD CHANGE   HEAD CHANGE   HEAD CHANGE
  LAYER,ROW,COL LAYER,ROW,COL LAYER,ROW,COL LAYER,ROW,COL LAYER,ROW,COL
 ----------------------------------------------------------------------
      1.965         2.307         2.058        -1.211        -2.850    
  (  3,  1,  1) (  3,  2,  8) (  3,  3,  3) (  3,  2, 10) (  3,  1,  1)
    -0.1925       -0.5003        -1.239        0.2450       -0.3556E-01
  (  3,  1, 10) (  3,  1,  1) (  3,  1, 10) (  3, 10,  1) (  2,  1,  1)
    -0.5452E-01   -0.1113E-01   -0.1622E-02   -0.1222E-02   -0.1728E-02
  (  2,  7,  1) (  2,  1,  2) (  3,  9,  1) (  3,  3,  1) (  3,  1, 10)
     0.1420E-02    0.8040E-03    0.2157E-02    0.1093E-02    0.2369E-02
  (  3, 10,  1) (  3,  9,  6) (  3,  6,  9) (  3,  1,  2) (  3,  2, 10)
     0.1308E-02    0.2434E-02    0.2205E-02    0.1632E-02    0.1214E-02
  (  3,  1,  2) (  3,  6,  7) (  3,  1,  1) (  3,  1,  2) (  3,  1,  2)
     0.7489E-03    0.7969E-03    0.5512E-03    0.3826E-03    0.2803E-03
  (  3,  1,  2) (  3,  1,  2) (  3,  2,  5) (  3,  1,  2) (  3,  1,  2)
     0.1754E-03    0.1866E-03    0.1297E-03    0.8806E-04    0.6551E-04
  (  3,  1,  2) (  3,  2,  5) (  3,  1,  2) (  3,  1,  2) (  3,  1,  2)
     0.4106E-04    0.4286E-04    0.2974E-04    0.2083E-04    0.1529E-04
  (  3,  1,  2) (  3,  1,  2) (  3,  2,  5) (  3,  1,  2) (  3,  1,  2)
     0.9739E-05
  (  3,  1,  2)


 OUTPUT CONTROL FOR STRESS PERIOD     21   TIME STEP     2
    SAVE HEAD FOR ALL LAYERS

 HEAD WILL BE SAVED ON UNIT   21 AT END OF TIME STEP     2 IN STRESS PERIOD     21
 
 SOLVING FOR HEAD 
    39 ITERATIONS FOR TIME STEP   3 IN STRESS PERIOD   21

 MAXIMUM HEAD CHANGE FOR EACH ITERATION:

    HEAD CHANGE   HEAD CHANGE   HEAD CHANGE   HEAD CHANGE   HEAD CHANGE
  LAYER,ROW,COL LAYER,ROW,COL LAYER,ROW,COL LAYER,ROW,COL LAYER,ROW,COL
 ----------------------------------------------------------------------
      1.522         1.847         1.809        -1.031        -2.901    
  (  3,  1,  1) (  3,  1, 10) (  3,  2,  1) (  3,  2, 10) (  3,  1,  1)
     0.1819       -0.3439       -0.9192        0.5226        0.3510E-01
  (  2,  5,  1) (  3,  1,  1) (  3,  1, 10) (  3, 10,  1) (  2, 10, 10)
    -0.4196E-01   -0.1274E-01   -0.5148E-02   -0.2441E-02   -0.1253E-02
  (  2,  7,  1) (  2,  1,  2) (  3,  2,  7) (  3,  4,  9) (  3,  1,  6)
    -0.6710E-03    0.1794E-02    0.1500E-02    0.2588E-02    0.2755E-02
  (  2,  1, 10) (  3, 10, 10) (  3,  1, 10) (  3,  6,  2) (  3,  1, 10)
     0.1591E-02    0.1931E-02    0.1314E-02    0.8456E-03    0.6008E-03
  (  3,  1,  1) (  3,  2,  4) (  3,  2,  4) (  3,  4,  1) (  3,  4,  1)
     0.3719E-03    0.4119E-03    0.2929E-03    0.1867E-03    0.1358E-03
  (  3,  1, 10) (  3,  2,  4) (  3,  4,  1) (  3,  4,  1) (  3,  4,  1)
     0.7584E-04    0.9091E-04    0.6427E-04    0.4240E-04    0.3041E-04
  (  3,  4,  1) (  3,  2,  4) (  3,  4,  1) (  3,  4,  1) (  3,  4,  1)
     0.1802E-04    0.1959E-04    0.1383E-04    0.8366E-05
  (  3,  4,  1) (  3,  2,  4) (  3,  4,  1) (  3,  2,  4)


 OUTPUT CONTROL FOR STRESS PERIOD     21   TIME STEP     3
    SAVE HEAD FOR ALL LAYERS

 HEAD WILL BE SAVED ON UNIT   21 AT END OF TIME STEP     3 IN STRESS PERIOD     21
 
 SOLVING FOR HEAD 
    36 ITERATIONS FOR TIME STEP   4 IN STRESS PERIOD   21

 MAXIMUM HEAD CHANGE FOR EACH ITERATION:

    HEAD CHANGE   HEAD CHANGE   HEAD CHANGE   HEAD CHANGE   HEAD CHANGE
  LAYER,ROW,COL LAYER,ROW,COL LAYER,ROW,COL LAYER,ROW,COL LAYER,ROW,COL
 ----------------------------------------------------------------------
      1.119         1.382         1.404       -0.9211        -2.802    
  (  3,  1,  1) (  3,  1, 10) (  3,  2,  1) (  3,  2, 10) (  3,  1,  1)
     0.2347        0.9525E-01    0.1338E-01   -0.1537E-01   -0.1153E-01
  (  3, 10, 10) (  3,  9,  7) (  2,  1,  6) (  3,  1,  9) (  3,  3,  6)
     0.7577E-02   -0.6924E-02   -0.3509E-02   -0.1994E-02    0.2221E-02
  (  2,  6,  1) (  3,  3,  6) (  3,  4,  3) (  3,  3,  6) (  3,  1,  9)
     0.1951E-02    0.3147E-02    0.2674E-02    0.1674E-02    0.1218E-02
  (  3, 10,  1) (  3,  1,  1) (  3,  1, 10) (  3,  1,  9) (  3,  1,  2)
     0.6293E-03    0.8169E-03    0.5677E-03    0.3522E-03    0.2434E-03
  (  3,  1,  1) (  3,  1, 10) (  3,  1,  1) (  3,  1,  2) (  3,  1, 10)
     0.1420E-03    0.1641E-03    0.1169E-03    0.7009E-04    0.5205E-04
  (  3,  1, 10) (  3,  1,  1) (  3,  1, 10) (  3,  1, 10) (  3,  1,  2)
     0.3012E-04    0.3398E-04    0.2337E-04    0.1522E-04    0.1031E-04
  (  2,  7,  1) (  3,  1, 10) (  3,  1,  2) (  3,  1,  2) (  3,  1, 10)
     0.5510E-05
  (  2,  6,  1)


 OUTPUT CONTROL FOR STRESS PERIOD     21   TIME STEP     4
    SAVE HEAD FOR ALL LAYERS

 HEAD WILL BE SAVED ON UNIT   21 AT END OF TIME STEP     4 IN STRESS PERIOD     21
 
 SOLVING FOR HEAD 
    31 ITERATIONS FOR TIME STEP   5 IN STRESS PERIOD   21

 MAXIMUM HEAD CHANGE FOR EACH ITERATION:

    HEAD CHANGE   HEAD CHANGE   HEAD CHANGE   HEAD CHANGE   HEAD CHANGE
  LAYER,ROW,COL LAYER,ROW,COL LAYER,ROW,COL LAYER,ROW,COL LAYER,ROW,COL
 ----------------------------------------------------------------------
     0.7659        0.9376        0.9354       -0.9369        -2.526    
  (  3,  1,  1) (  3,  1, 10) (  3,  2,  1) (  3,  2, 10) (  3,  1,  1)
     0.7134        0.4219        0.1376        0.7114E-01   -0.4841E-01
  (  3, 10,  1) (  3,  9,  3) (  2,  1,  8) (  2, 10,  1) (  2, 10, 10)
     0.7755E-01    0.1321E-01   -0.6227E-02   -0.3265E-02   -0.2159E-02
  (  2,  6,  1) (  2,  1,  2) (  3,  8,  4) (  3,  8,  1) (  3,  8,  4)
    -0.2289E-02   -0.1477E-02   -0.1142E-02   -0.6124E-03   -0.3950E-03
  (  2,  6,  1) (  3,  9,  3) (  3,  8,  4) (  3,  8,  4) (  3,  8,  4)
    -0.1743E-03   -0.2725E-03   -0.2141E-03   -0.1130E-03   -0.7573E-04
  (  3, 10,  4) (  3,  8,  3) (  3,  8,  4) (  3,  8,  4) (  3,  8,  4)
    -0.3143E-04   -0.5153E-04   -0.3980E-04   -0.2172E-04   -0.1400E-04
  (  3, 10,  4) (  3,  8,  4) (  3,  8,  4) (  3,  8,  4) (  3,  8,  4)
    -0.6399E-05
  (  3,  9,  9)


 OUTPUT CONTROL FOR STRESS PERIOD     21   TIME STEP     5
    SAVE HEAD FOR ALL LAYERS

 HEAD WILL BE SAVED ON UNIT   21 AT END OF TIME STEP     5 IN STRESS PERIOD     21
 
 SOLVING FOR HEAD 
    32 ITERATIONS FOR TIME STEP   6 IN STRESS PERIOD   21

 MAXIMUM HEAD CHANGE FOR EACH ITERATION:

    HEAD CHANGE   HEAD CHANGE   HEAD CHANGE   HEAD CHANGE   HEAD CHANGE
  LAYER,ROW,COL LAYER,ROW,COL LAYER,ROW,COL LAYER,ROW,COL LAYER,ROW,COL
 ----------------------------------------------------------------------
     0.4649        0.5381        0.4111        -1.050        -1.060    
  (  3,  1,  1) (  3,  2,  8) (  3,  3,  3) (  3,  1, 10) (  3,  1,  1)
     0.4842        0.2879        0.8006E-01    0.2671E-01   -0.2596E-01
  (  3,  1, 10) (  3,  2,  2) (  2,  1,  9) (  2, 10,  1) (  2, 10, 10)
     0.2673E-01   -0.1086E-01   -0.8756E-02   -0.4456E-02   -0.2681E-02
  (  2,  7,  1) (  3,  2,  6) (  3,  2,  4) (  3,  2,  6) (  3,  2,  6)
    -0.2416E-02   -0.1794E-02   -0.1523E-02   -0.7483E-03   -0.4751E-03
  (  2,  7,  1) (  3,  2,  6) (  3,  2,  6) (  3,  3,  6) (  3,  3,  6)
    -0.3799E-03   -0.3169E-03   -0.2607E-03   -0.1352E-03   -0.8202E-04
  (  2,  8,  1) (  3,  2,  6) (  3,  3,  6) (  3,  3,  6) (  3,  3,  6)
    -0.4021E-04   -0.5504E-04   -0.4699E-04   -0.2367E-04   -0.1536E-04
  (  2,  8,  1) (  3,  3,  6) (  3,  3,  6) (  3,  3,  6) (  3,  3,  6)
    -0.1092E-04   -0.3667E-05
  (  2,  8,  1) (  3,  2,  7)


 OUTPUT CONTROL FOR STRESS PERIOD     21   TIME STEP     6
    PRINT BUDGET
    PRINT HEAD FOR ALL LAYERS
    SAVE HEAD FOR ALL LAYERS
    SAVE DRAWDOWN FOR ALL LAYERS
1
              HEAD IN LAYER   1 AT END OF TIME STEP   6 IN STRESS PERIOD   21
  ---------------------------------------------------------------------------

           1       2       3       4       5       6       7       8       9      10
 ...................................................................................
   1    20.49   20.14   19.47   19.05   18.84   18.84   19.04   19.46   20.13   20.48
   2    19.47   18.97   18.54   18.24   18.09   18.09   18.24   18.53   18.96   19.46
   3    18.02   17.53   17.15   16.91   16.78   16.78   16.90   17.14   17.52   18.01
   4    16.05   15.61   15.31   15.12   15.03   15.02   15.12   15.30   15.60   16.04
   5    13.25   13.16   13.06   12.98   12.93   12.93   12.97   13.05   13.15   13.24
   6    10.79   10.77   10.73   10.69   10.67   10.67   10.69   10.72   10.76   10.79
   7     8.43    8.41    8.38    8.34    8.32    8.32    8.34    8.37    8.41    8.43
   8     6.15    6.10    6.01    5.93    5.88    5.88    5.93    6.01    6.09    6.14
   9     4.05    3.91    3.64    3.34    3.21    3.21    3.34    3.64    3.90    4.05
  10     2.55    2.18    1.38    0.00    0.00    0.00    0.00    1.38    2.18    2.55
1
              HEAD IN LAYER   2 AT END OF TIME STEP   6 IN STRESS PERIOD   21
  ---------------------------------------------------------------------------

           1       2       3       4       5       6       7       8       9      10
 ...................................................................................
   1    -2.88   -2.87   -2.87   -2.88   -2.89   -2.91   -2.93   -2.95   -2.97   -3.01
   2    -2.97   -2.00   -2.29   -2.78   -3.27   -3.65   -3.62   -3.29   -2.94   -3.16
   3    -3.10   -2.54   -3.03   -3.84   -5.01   -6.58   -6.19   -4.86   -3.91   -3.33
   4    -3.26   -2.86   -3.25   -3.85   -4.61   -5.45   -5.31   -4.60   -3.98   -3.50
   5    -3.44   -3.11   -3.28   -3.55   -3.84   -4.06   -4.09   -3.96   -3.79   -3.67
   6    -3.64   -3.34   -3.39   -3.51   -3.62   -3.71   -3.75   -3.74   -3.72   -3.84
   7    -3.84   -3.67   -3.70   -3.76   -3.82   -3.86   -3.88   -3.88   -3.89   -4.01
   8    -4.06   -4.16   -4.24   -4.30   -4.35   -4.37   -4.37   -4.34   -4.29   -4.18
   9    -4.27   -4.76   -4.96   -5.11   -5.19   -5.20   -5.15   -5.02   -4.84   -4.35
  10    -4.46   -4.51   -4.55   -4.58   -4.59   -4.60   -4.59   -4.57   -4.54   -4.51
1
              HEAD IN LAYER   3 AT END OF TIME STEP   6 IN STRESS PERIOD   21
  ---------------------------------------------------------------------------

           1       2       3       4       5       6       7       8       9      10
 ...................................................................................
   1   -22.26  -22.43  -22.75  -23.17  -23.60  -23.96  -24.12  -24.12  -24.04  -23.98
   2   -22.31  -22.56  -23.08  -23.81  -24.68  -25.46  -25.54  -25.14  -24.73  -24.50
   3   -22.02  -22.41  -23.24  -24.64  -26.88  -30.49  -29.64  -26.94  -25.47  -24.82
   4   -20.88  -21.20  -21.85  -22.87  -24.30  -26.17  -25.91  -24.56  -23.68  -23.25
   5   -19.13  -19.31  -19.65  -20.12  -20.65  -21.11  -21.20  -21.01  -20.80  -20.67
   6   -17.30  -17.39  -17.54  -17.75  -17.96  -18.14  -18.23  -18.24  -18.21  -18.19
   7   -15.71  -15.74  -15.82  -15.91  -16.00  -16.09  -16.15  -16.18  -16.19  -16.20
   8   -14.47  -14.49  -14.53  -14.57  -14.62  -14.66  -14.70  -14.73  -14.74  -14.75
   9   -13.65  -13.66  -13.68  -13.70  -13.73  -13.76  -13.78  -13.80  -13.81  -13.81
  10   -13.24  -13.24  -13.26  -13.27  -13.29  -13.31  -13.33  -13.34  -13.35  -13.35

 HEAD WILL BE SAVED ON UNIT   21 AT END OF TIME STEP     6 IN STRESS PERIOD     21

 DRAWDOWN WILL BE SAVED ON UNIT   22 AT END OF TIME STEP     6 IN STRESS PERIOD     21



  -------------------------------------------------------------------------------------
  VOLUMETRIC BUDGET FOR ENTIRE MODEL AT END OF TIME STEP    6 IN STRESS PERIOD     21
  -------------------------------------------------------------------------------------

     CUMULATIVE VOLUMES      L**3       RATES FOR THIS TIME STEP      L**3/T
     ------------------                 ------------------------

           IN:                                      IN:
           ---                                      ---
             STORAGE =    33140600.0935               STORAGE =        3561.9406
       CONSTANT HEAD =      356498.5206         CONSTANT HEAD =         110.1583
               WELLS =   219210000.0000                 WELLS =       30000.0000
    INST. IB STORAGE =    46996435.4323      INST. IB STORAGE =        5169.0553
    DELAY IB STORAGE =   114553183.0907      DELAY IB STORAGE =       15580.8086

            TOTAL IN =   414256717.1371              TOTAL IN =       54421.9628

          OUT:                                     OUT:
          ----                                     ----
             STORAGE =           0.0000               STORAGE =           0.0000
       CONSTANT HEAD =   195076813.3901         CONSTANT HEAD =       24421.9852
               WELLS =   219180000.0000                 WELLS =       30000.0000
    INST. IB STORAGE =       1.8603E-07      INST. IB STORAGE =       2.2162E-11
    DELAY IB STORAGE =       6.5235E-11      DELAY IB STORAGE =           0.0000

           TOTAL OUT =   414256813.3901             TOTAL OUT =       54421.9852

            IN - OUT =         -96.2530              IN - OUT =      -2.2420E-02

 PERCENT DISCREPANCY =          -0.00     PERCENT DISCREPANCY =          -0.00


          TIME SUMMARY AT END OF TIME STEP     6 IN STRESS PERIOD     21
                    SECONDS     MINUTES      HOURS       DAYS        YEARS
                    -----------------------------------------------------------
   TIME STEP LENGTH 9.18681E+06 1.53113E+05  2551.9      106.33     0.29111    
 STRESS PERIOD TIME 3.15619E+07 5.26032E+05  8767.2      365.30      1.0001    
         TOTAL TIME 6.31325E+08 1.05221E+07 1.75368E+05  7307.0      20.005    
 

                               VOLUMETRIC BUDGET FOR SYSTEMS OF DELAY INTERBEDS
                                          AT END OF TIME STEP  6 IN STRESS PERIOD 21

          |   C U M U L A T I V E   V O L U M E S   L**3           | R A T E S   F O R  T H I S  T I M E  S T E P   L**3/T  |
   SYSTEM |    CHANGE IN     BOUNDARY                    PERCENT   |    CHANGE IN     BOUNDARY                    PERCENT   |
   NUMBER |     STORAGE        FLOW           SUM      DISCREPANCY |     STORAGE        FLOW           SUM      DISCREPANCY |
  --------|--------------------------------------------------------|--------------------------------------------------------|
      1     84040.        -84040.       -0.14552E-10   -0.17315E-13     9.3393        -9.3393        0.71054E-14    0.76081E-13
      2    0.11447E+09   -0.11447E+09    0.44703E-07    0.39053E-13     15571.        -15571.        0.54570E-11    0.35045E-13
  --------|--------------------------------------------------------|--------------------------------------------------------|
 TOTALS:    0.11455E+09   -0.11455E+09    0.44703E-07    0.39024E-13     15581.        -15581.        0.54570E-11    0.35024E-13
1
                            STRESS PERIOD NO.     22, LENGTH =   365.3000    
                            -----------------------------------------------

                              NUMBER OF TIME STEPS =     6

                               MULTIPLIER FOR DELT =     1.300

                            INITIAL TIME STEP SIZE =   28.63744    

REUSING NON-PARAMETER WELLS FROM LAST STRESS PERIOD

14 WELLS
 
 SOLVING FOR HEAD 

    44 ITERATIONS FOR TIME STEP   1 IN STRESS PERIOD   22

 MAXIMUM HEAD CHANGE FOR EACH ITERATION:

    HEAD CHANGE   HEAD CHANGE   HEAD CHANGE   HEAD CHANGE   HEAD CHANGE
  LAYER,ROW,COL LAYER,ROW,COL LAYER,ROW,COL LAYER,ROW,COL LAYER,ROW,COL
 ----------------------------------------------------------------------
      2.387         2.676         2.074        -1.488        -2.638    
  (  3,  1,  1) (  3,  2,  8) (  3,  3,  3) (  3,  1, 10) (  3,  1,  1)
    -0.2371       -0.6032        -1.364        -1.049        0.7930    
  (  3,  1, 10) (  3,  1,  1) (  3,  1, 10) (  3,  3,  1) (  3,  1,  1)
    -0.5713E-01    0.6898E-02   -0.4973E-02   -0.3260E-02   -0.2019E-02
  (  2,  7,  1) (  2,  2,  1) (  3,  1,  1) (  3,  3, 10) (  3,  1,  1)
    -0.1557E-02    0.5947E-03   -0.6858E-03    0.1384E-02    0.6001E-03
  (  3,  1,  1) (  3,  9,  1) (  3,  8, 10) (  3,  8,  1) (  3,  3,  1)
     0.1175E-02    0.1227E-02    0.1734E-02    0.1845E-02    0.1527E-02
  (  3,  8,  1) (  3,  1,  9) (  3, 10, 10) (  3,  1,  6) (  3,  1,  9)
     0.1053E-02    0.9732E-03    0.7056E-03    0.4981E-03    0.3790E-03
  (  3,  1,  9) (  3,  3,  1) (  3,  1,  9) (  3,  1,  9) (  3,  1,  9)
     0.2510E-03    0.2419E-03    0.1691E-03    0.1242E-03    0.9182E-04
  (  3,  1,  9) (  3,  1,  9) (  3,  3,  1) (  3,  1,  9) (  3,  1,  9)
     0.6390E-04    0.5830E-04    0.4238E-04    0.3008E-04    0.2294E-04
  (  3,  1,  9) (  3,  3,  1) (  3,  1,  9) (  3,  1,  9) (  3,  1,  9)
     0.1539E-04    0.1454E-04    0.1006E-04    0.3829E-05
  (  3,  1,  9) (  3,  1,  9) (  3,  1,  9) (  3,  1,  9)


 OUTPUT CONTROL FOR STRESS PERIOD     22   TIME STEP     1
    SAVE HEAD FOR ALL LAYERS

 HEAD WILL BE SAVED ON UNIT   21 AT END OF TIME STEP     1 IN STRESS PERIOD     22
 
 SOLVING FOR HEAD 
    42 ITERATIONS FOR TIME STEP   2 IN STRESS PERIOD   22

 MAXIMUM HEAD CHANGE FOR EACH ITERATION:

    HEAD CHANGE   HEAD CHANGE   HEAD CHANGE   HEAD CHANGE   HEAD CHANGE
  LAYER,ROW,COL LAYER,ROW,COL LAYER,ROW,COL LAYER,ROW,COL LAYER,ROW,COL
 ----------------------------------------------------------------------
      1.928         2.263         2.035        -1.183        -2.814    
  (  3,  1,  1) (  3,  2,  8) (  3,  3,  3) (  3,  2, 10) (  3,  1,  1)
    -0.1882       -0.4910        -1.218        0.2406       -0.3585E-01
  (  3,  1, 10) (  3,  1,  1) (  3,  1, 10) (  3, 10,  1) (  2,  1,  1)
    -0.5351E-01   -0.1131E-01   -0.1419E-02   -0.1021E-02   -0.1695E-02
  (  2,  7,  1) (  2,  1,  2) (  3, 10,  3) (  3,  2,  1) (  3,  1, 10)
     0.1313E-02    0.9221E-03    0.2133E-02    0.1414E-02    0.2352E-02
  (  3, 10,  7) (  3,  9,  3) (  3,  6, 10) (  3,  1,  1) (  3,  2,  9)
     0.1620E-02    0.2419E-02    0.2225E-02    0.1708E-02    0.1308E-02
  (  3,  1,  1) (  3,  6,  7) (  3,  1,  1) (  3,  1,  1) (  3,  1,  1)
     0.8178E-03    0.8590E-03    0.5557E-03    0.4172E-03    0.2966E-03
  (  3,  1,  1) (  3,  1,  1) (  3,  1,  1) (  3,  1,  1) (  3,  1,  1)
     0.2052E-03    0.1854E-03    0.1423E-03    0.9231E-04    0.7229E-04
  (  3,  1,  1) (  3,  1,  2) (  3,  1,  1) (  3,  1,  1) (  3,  1,  1)
     0.4579E-04    0.4684E-04    0.3019E-04    0.2326E-04    0.1623E-04
  (  3,  1,  1) (  3,  1,  1) (  3,  9,  4) (  3,  1,  1) (  3,  1,  1)
     0.1166E-04    0.7605E-05
  (  3,  1,  1) (  3,  1,  1)


 OUTPUT CONTROL FOR STRESS PERIOD     22   TIME STEP     2
    SAVE HEAD FOR ALL LAYERS

 HEAD WILL BE SAVED ON UNIT   21 AT END OF TIME STEP     2 IN STRESS PERIOD     22
 
 SOLVING FOR HEAD 
    39 ITERATIONS FOR TIME STEP   3 IN STRESS PERIOD   22

 MAXIMUM HEAD CHANGE FOR EACH ITERATION:

    HEAD CHANGE   HEAD CHANGE   HEAD CHANGE   HEAD CHANGE   HEAD CHANGE
  LAYER,ROW,COL LAYER,ROW,COL LAYER,ROW,COL LAYER,ROW,COL LAYER,ROW,COL
 ----------------------------------------------------------------------
      1.493         1.810         1.787        -1.007        -2.866    
  (  3,  1,  1) (  3,  1, 10) (  3,  2,  1) (  3,  2, 10) (  3,  1,  1)
     0.1802       -0.3371       -0.9030        0.5189        0.3423E-01
  (  2,  5,  1) (  3,  1,  1) (  3,  1, 10) (  3, 10,  1) (  2, 10, 10)
    -0.4116E-01   -0.1283E-01   -0.5016E-02   -0.2465E-02   -0.1155E-02
  (  2,  7,  1) (  2,  1,  2) (  3,  2,  7) (  3,  3, 10) (  3,  1, 10)
    -0.6685E-03    0.1826E-02    0.1494E-02    0.2625E-02    0.2696E-02
  (  2,  1, 10) (  3, 10, 10) (  3,  1, 10) (  3,  6,  3) (  3,  1,  9)
     0.1590E-02    0.1943E-02    0.1301E-02    0.8599E-03    0.6022E-03
  (  3,  1,  1) (  3,  2,  3) (  3,  2,  3) (  3,  1,  4) (  3,  1,  4)
     0.3611E-03    0.4115E-03    0.2893E-03    0.1829E-03    0.1365E-03
  (  3,  1, 10) (  3,  2,  3) (  3,  2,  3) (  3,  1,  4) (  3,  1,  4)
     0.7613E-04    0.9161E-04    0.6280E-04    0.4187E-04    0.2959E-04
  (  3,  1,  4) (  3,  2,  3) (  3,  4,  1) (  3,  4,  1) (  3,  4,  1)
     0.1794E-04    0.1942E-04    0.1406E-04    0.8733E-05
  (  3,  1,  4) (  3,  2,  3) (  3,  1,  4) (  3,  1,  4)


 OUTPUT CONTROL FOR STRESS PERIOD     22   TIME STEP     3
    SAVE HEAD FOR ALL LAYERS

 HEAD WILL BE SAVED ON UNIT   21 AT END OF TIME STEP     3 IN STRESS PERIOD     22
 
 SOLVING FOR HEAD 
    36 ITERATIONS FOR TIME STEP   4 IN STRESS PERIOD   22

 MAXIMUM HEAD CHANGE FOR EACH ITERATION:

    HEAD CHANGE   HEAD CHANGE   HEAD CHANGE   HEAD CHANGE   HEAD CHANGE
  LAYER,ROW,COL LAYER,ROW,COL LAYER,ROW,COL LAYER,ROW,COL LAYER,ROW,COL
 ----------------------------------------------------------------------
      1.098         1.355         1.387       -0.9006        -2.770    
  (  3,  1,  1) (  3,  1, 10) (  3,  2,  1) (  3,  2, 10) (  3,  1,  1)
     0.2275        0.9199E-01    0.1389E-01   -0.1505E-01   -0.1128E-01
  (  3, 10, 10) (  3,  9,  7) (  2,  1,  6) (  3,  1,  1) (  3,  3,  6)
     0.7864E-02   -0.6766E-02   -0.3460E-02   -0.1910E-02    0.2186E-02
  (  2,  6,  1) (  3,  3,  6) (  3,  4,  3) (  3,  3,  6) (  3,  1,  6)
     0.1925E-02    0.3078E-02    0.2607E-02    0.1636E-02    0.1185E-02
  (  3, 10,  1) (  3,  1,  1) (  3,  1, 10) (  3,  1,  9) (  3,  1,  2)
     0.6123E-03    0.7965E-03    0.5531E-03    0.3426E-03    0.2381E-03
  (  3,  1,  1) (  3,  1, 10) (  3,  1,  1) (  3,  1,  2) (  3,  1, 10)
     0.1371E-03    0.1596E-03    0.1134E-03    0.6857E-04    0.5061E-04
  (  3,  1, 10) (  3,  1,  1) (  3,  1, 10) (  3,  1, 10) (  3,  1,  2)
     0.3084E-04    0.3302E-04    0.2276E-04    0.1479E-04    0.1011E-04
  (  2,  7,  1) (  3,  1, 10) (  3,  1,  2) (  3,  1,  2) (  3,  1, 10)
     0.5704E-05
  (  2,  6,  1)


 OUTPUT CONTROL FOR STRESS PERIOD     22   TIME STEP     4
    SAVE HEAD FOR ALL LAYERS

 HEAD WILL BE SAVED ON UNIT   21 AT END OF TIME STEP     4 IN STRESS PERIOD     22
 
 SOLVING FOR HEAD 
    31 ITERATIONS FOR TIME STEP   5 IN STRESS PERIOD   22

 MAXIMUM HEAD CHANGE FOR EACH ITERATION:

    HEAD CHANGE   HEAD CHANGE   HEAD CHANGE   HEAD CHANGE   HEAD CHANGE
  LAYER,ROW,COL LAYER,ROW,COL LAYER,ROW,COL LAYER,ROW,COL LAYER,ROW,COL
 ----------------------------------------------------------------------
     0.7514        0.9186        0.9247       -0.9200        -2.498    
  (  3,  1,  1) (  3,  1, 10) (  3,  2,  1) (  3,  2, 10) (  3,  1,  1)
     0.7116        0.4170        0.1421        0.7087E-01   -0.4843E-01
  (  3,  1, 10) (  3,  9,  3) (  2,  3,  6) (  2, 10,  1) (  2, 10, 10)
     0.7696E-01    0.1365E-01   -0.6156E-02   -0.3227E-02   -0.2144E-02
  (  2,  6,  1) (  2,  1,  2) (  3,  8,  4) (  3,  8,  2) (  3,  8,  3)
    -0.2190E-02   -0.1458E-02   -0.1130E-02   -0.6065E-03   -0.3900E-03
  (  2,  6,  1) (  3,  8,  3) (  3,  8,  3) (  3,  8,  3) (  3,  8,  3)
    -0.1680E-03   -0.2705E-03   -0.2118E-03   -0.1116E-03   -0.7524E-04
  (  3, 10,  4) (  3,  8,  3) (  3,  8,  4) (  3,  8,  3) (  3,  8,  3)
    -0.3016E-04   -0.5104E-04   -0.3931E-04   -0.2159E-04   -0.1377E-04
  (  3, 10,  4) (  3,  8,  3) (  3,  8,  3) (  3,  8,  4) (  3,  8,  3)
    -0.6373E-05
  (  3,  9,  9)


 OUTPUT CONTROL FOR STRESS PERIOD     22   TIME STEP     5
    SAVE HEAD FOR ALL LAYERS

 HEAD WILL BE SAVED ON UNIT   21 AT END OF TIME STEP     5 IN STRESS PERIOD     22
 
 SOLVING FOR HEAD 
    32 ITERATIONS FOR TIME STEP   6 IN STRESS PERIOD   22

 MAXIMUM HEAD CHANGE FOR EACH ITERATION:

    HEAD CHANGE   HEAD CHANGE   HEAD CHANGE   HEAD CHANGE   HEAD CHANGE
  LAYER,ROW,COL LAYER,ROW,COL LAYER,ROW,COL LAYER,ROW,COL LAYER,ROW,COL
 ----------------------------------------------------------------------
     0.4559        0.5268        0.4062        -1.034        -1.045    
  (  3,  1,  1) (  3,  2,  8) (  3,  3,  3) (  3,  1, 10) (  3,  1,  1)
     0.4806        0.2861        0.8145E-01    0.2661E-01   -0.2603E-01
  (  3,  1, 10) (  3,  2,  2) (  2,  3,  6) (  2, 10,  1) (  2, 10, 10)
     0.2645E-01   -0.1076E-01   -0.8681E-02   -0.4416E-02   -0.2658E-02
  (  2,  7,  1) (  3,  2,  6) (  3,  2,  4) (  3,  2,  6) (  3,  2,  6)
    -0.2317E-02   -0.1776E-02   -0.1509E-02   -0.7337E-03   -0.4676E-03
  (  2,  7,  1) (  3,  2,  6) (  3,  2,  6) (  3,  2,  6) (  3,  2,  6)
    -0.3764E-03   -0.3137E-03   -0.2556E-03   -0.1316E-03   -0.7959E-04
  (  2,  8,  1) (  3,  2,  6) (  3,  3,  5) (  3,  3,  5) (  3,  3,  7)
    -0.4003E-04   -0.5342E-04   -0.4574E-04   -0.2277E-04   -0.1468E-04
  (  2,  8,  1) (  3,  3,  7) (  3,  3,  5) (  3,  3,  7) (  3,  3,  7)
    -0.1087E-04   -0.3620E-05
  (  2,  8,  1) (  3,  2,  6)


 OUTPUT CONTROL FOR STRESS PERIOD     22   TIME STEP     6
    PRINT BUDGET
    PRINT HEAD FOR ALL LAYERS
    SAVE HEAD FOR ALL LAYERS
    SAVE DRAWDOWN FOR ALL LAYERS
1
              HEAD IN LAYER   1 AT END OF TIME STEP   6 IN STRESS PERIOD   22
  ---------------------------------------------------------------------------

           1       2       3       4       5       6       7       8       9      10
 ...................................................................................
   1    20.40   20.05   19.38   18.96   18.75   18.75   18.95   19.37   20.04   20.39
   2    19.39   18.88   18.45   18.15   18.00   18.00   18.15   18.44   18.87   19.38
   3    17.94   17.44   17.07   16.82   16.69   16.69   16.81   17.06   17.43   17.93
   4    15.97   15.53   15.23   15.04   14.94   14.94   15.03   15.22   15.52   15.96
   5    13.18   13.09   12.98   12.90   12.86   12.85   12.90   12.98   13.08   13.17
   6    10.73   10.70   10.66   10.62   10.60   10.60   10.62   10.66   10.69   10.72
   7     8.38    8.36    8.32    8.29    8.27    8.27    8.28    8.32    8.35    8.37
   8     6.10    6.05    5.97    5.88    5.84    5.84    5.88    5.97    6.05    6.10
   9     4.02    3.88    3.61    3.31    3.19    3.19    3.31    3.61    3.87    4.02
  10     2.53    2.16    1.37    0.00    0.00    0.00    0.00    1.37    2.16    2.53
1
              HEAD IN LAYER   2 AT END OF TIME STEP   6 IN STRESS PERIOD   22
  ---------------------------------------------------------------------------

           1       2       3       4       5       6       7       8       9      10
 ...................................................................................
   1    -3.19   -3.18   -3.18   -3.19   -3.20   -3.22   -3.24   -3.26   -3.28   -3.31
   2    -3.27   -2.32   -2.62   -3.11   -3.61   -3.98   -3.95   -3.62   -3.27   -3.46
   3    -3.40   -2.86   -3.35   -4.17   -5.33   -6.90   -6.51   -5.18   -4.23   -3.63
   4    -3.55   -3.17   -3.56   -4.16   -4.92   -5.77   -5.62   -4.91   -4.29   -3.80
   5    -3.73   -3.41   -3.57   -3.85   -4.14   -4.36   -4.39   -4.26   -4.09   -3.96
   6    -3.92   -3.62   -3.67   -3.79   -3.91   -4.00   -4.03   -4.02   -4.01   -4.12
   7    -4.12   -3.94   -3.97   -4.03   -4.09   -4.13   -4.15   -4.15   -4.16   -4.28
   8    -4.33   -4.42   -4.49   -4.55   -4.60   -4.63   -4.62   -4.59   -4.54   -4.45
   9    -4.53   -5.01   -5.20   -5.35   -5.43   -5.44   -5.39   -5.26   -5.08   -4.62
  10    -4.73   -4.77   -4.81   -4.84   -4.85   -4.86   -4.85   -4.83   -4.81   -4.77
1
              HEAD IN LAYER   3 AT END OF TIME STEP   6 IN STRESS PERIOD   22
  ---------------------------------------------------------------------------

           1       2       3       4       5       6       7       8       9      10
 ...................................................................................
   1   -22.84  -23.01  -23.33  -23.74  -24.18  -24.54  -24.70  -24.70  -24.62  -24.56
   2   -22.88  -23.14  -23.65  -24.38  -25.25  -26.03  -26.11  -25.71  -25.30  -25.07
   3   -22.58  -22.97  -23.80  -25.21  -27.44  -31.06  -30.20  -27.50  -26.03  -25.38
   4   -21.42  -21.74  -22.39  -23.41  -24.84  -26.72  -26.45  -25.11  -24.23  -23.80
   5   -19.66  -19.83  -20.17  -20.64  -21.18  -21.63  -21.72  -21.54  -21.32  -21.19
   6   -17.81  -17.89  -18.04  -18.25  -18.46  -18.64  -18.73  -18.74  -18.71  -18.69
   7   -16.19  -16.23  -16.30  -16.39  -16.49  -16.57  -16.63  -16.66  -16.68  -16.68
   8   -14.94  -14.96  -14.99  -15.04  -15.08  -15.13  -15.16  -15.19  -15.21  -15.21
   9   -14.10  -14.11  -14.13  -14.15  -14.18  -14.21  -14.23  -14.25  -14.26  -14.26
  10   -13.68  -13.69  -13.70  -13.72  -13.73  -13.75  -13.77  -13.78  -13.79  -13.80

 HEAD WILL BE SAVED ON UNIT   21 AT END OF TIME STEP     6 IN STRESS PERIOD     22

 DRAWDOWN WILL BE SAVED ON UNIT   22 AT END OF TIME STEP     6 IN STRESS PERIOD     22



  -------------------------------------------------------------------------------------
  VOLUMETRIC BUDGET FOR ENTIRE MODEL AT END OF TIME STEP    6 IN STRESS PERIOD     22
  -------------------------------------------------------------------------------------

     CUMULATIVE VOLUMES      L**3       RATES FOR THIS TIME STEP      L**3/T
     ------------------                 ------------------------

           IN:                                      IN:
           ---                                      ---
             STORAGE =    34427310.9631               STORAGE =        3496.3296
       CONSTANT HEAD =      398110.3645         CONSTANT HEAD =         116.4215
               WELLS =   230169000.0000                 WELLS =       30000.0000
    INST. IB STORAGE =    48877440.5794      INST. IB STORAGE =        5135.2698
    DELAY IB STORAGE =   120222597.5199      DELAY IB STORAGE =       15479.7880

            TOTAL IN =   434094459.4269              TOTAL IN =       54227.8091

          OUT:                                     OUT:
          ----                                     ----
             STORAGE =           0.0000               STORAGE =           0.0000
       CONSTANT HEAD =   203955567.3762         CONSTANT HEAD =       24227.8312
               WELLS =   230139000.0000                 WELLS =       30000.0000
    INST. IB STORAGE =       1.9816E-07      INST. IB STORAGE =       1.8467E-11
    DELAY IB STORAGE =       6.5235E-11      DELAY IB STORAGE =           0.0000

           TOTAL OUT =   434094567.3762             TOTAL OUT =       54227.8312

            IN - OUT =        -107.9493              IN - OUT =      -2.2185E-02

 PERCENT DISCREPANCY =          -0.00     PERCENT DISCREPANCY =          -0.00


          TIME SUMMARY AT END OF TIME STEP     6 IN STRESS PERIOD     22
                    SECONDS     MINUTES      HOURS       DAYS        YEARS
                    -----------------------------------------------------------
   TIME STEP LENGTH 9.18681E+06 1.53113E+05  2551.9      106.33     0.29111    
 STRESS PERIOD TIME 3.15619E+07 5.26032E+05  8767.2      365.30      1.0001    
         TOTAL TIME 6.62887E+08 1.10481E+07 1.84135E+05  7672.3      21.006    
 

                               VOLUMETRIC BUDGET FOR SYSTEMS OF DELAY INTERBEDS
                                          AT END OF TIME STEP  6 IN STRESS PERIOD 22

          |   C U M U L A T I V E   V O L U M E S   L**3           | R A T E S   F O R  T H I S  T I M E  S T E P   L**3/T  |
   SYSTEM |    CHANGE IN     BOUNDARY                    PERCENT   |    CHANGE IN     BOUNDARY                    PERCENT   |
   NUMBER |     STORAGE        FLOW           SUM      DISCREPANCY |     STORAGE        FLOW           SUM      DISCREPANCY |
  --------|--------------------------------------------------------|--------------------------------------------------------|
      1     87437.        -87437.       -0.14552E-10   -0.16643E-13     9.1612        -9.1612       -0.35527E-14   -0.38780E-13
      2    0.12014E+09   -0.12014E+09    0.59605E-07    0.49615E-13     15471.        -15471.       -0.90949E-11   -0.58788E-13
  --------|--------------------------------------------------------|--------------------------------------------------------|
 TOTALS:    0.12022E+09   -0.12022E+09    0.59605E-07    0.49579E-13     15480.        -15480.       -0.90949E-11   -0.58754E-13
1
                            STRESS PERIOD NO.     23, LENGTH =   365.3000    
                            -----------------------------------------------

                              NUMBER OF TIME STEPS =     6

                               MULTIPLIER FOR DELT =     1.300

                            INITIAL TIME STEP SIZE =   28.63744    

REUSING NON-PARAMETER WELLS FROM LAST STRESS PERIOD

14 WELLS
 
 SOLVING FOR HEAD 

    44 ITERATIONS FOR TIME STEP   1 IN STRESS PERIOD   23

 MAXIMUM HEAD CHANGE FOR EACH ITERATION:

    HEAD CHANGE   HEAD CHANGE   HEAD CHANGE   HEAD CHANGE   HEAD CHANGE
  LAYER,ROW,COL LAYER,ROW,COL LAYER,ROW,COL LAYER,ROW,COL LAYER,ROW,COL
 ----------------------------------------------------------------------
      2.344         2.627         2.053        -1.457        -2.603    
  (  3,  1,  1) (  3,  2,  8) (  3,  3,  3) (  3,  1, 10) (  3,  1,  1)
    -0.2323       -0.5933        -1.343        -1.039        0.7838    
  (  3,  1, 10) (  3,  1,  1) (  3,  1, 10) (  3,  3,  1) (  3,  1,  1)
     0.6945E-01    0.6814E-02   -0.4873E-02   -0.3169E-02   -0.1974E-02
  (  2,  3,  6) (  2,  2,  1) (  3,  1,  1) (  3,  3, 10) (  3,  1,  1)
    -0.1515E-02    0.6203E-03   -0.7005E-03    0.1366E-02    0.6737E-03
  (  3,  1,  1) (  3,  9,  1) (  3,  8, 10) (  3,  8,  1) (  3,  1,  9)
     0.1379E-02    0.1216E-02    0.1526E-02    0.1779E-02    0.1517E-02
  (  3, 10, 10) (  3,  1,  9) (  3, 10,  6) (  3,  1,  7) (  3,  1,  9)
     0.1043E-02    0.9573E-03    0.7011E-03    0.5045E-03    0.3748E-03
  (  3,  1,  9) (  3,  1,  9) (  3,  1,  9) (  3,  1,  9) (  3,  1,  9)
     0.2532E-03    0.2411E-03    0.1689E-03    0.1225E-03    0.9311E-04
  (  3,  1,  9) (  3,  1,  9) (  3,  1,  9) (  3,  1,  9) (  3,  1,  9)
     0.6281E-04    0.5732E-04    0.4177E-04    0.3049E-04    0.2245E-04
  (  3,  1,  9) (  3,  1,  9) (  3,  1,  9) (  3,  1,  9) (  3,  1,  9)
     0.1552E-04    0.1438E-04    0.1023E-04    0.3637E-05
  (  3,  1,  9) (  3,  1,  9) (  3,  1,  9) (  3,  1,  9)


 OUTPUT CONTROL FOR STRESS PERIOD     23   TIME STEP     1
    SAVE HEAD FOR ALL LAYERS

 HEAD WILL BE SAVED ON UNIT   21 AT END OF TIME STEP     1 IN STRESS PERIOD     23
 
 SOLVING FOR HEAD 
    42 ITERATIONS FOR TIME STEP   2 IN STRESS PERIOD   23

 MAXIMUM HEAD CHANGE FOR EACH ITERATION:

    HEAD CHANGE   HEAD CHANGE   HEAD CHANGE   HEAD CHANGE   HEAD CHANGE
  LAYER,ROW,COL LAYER,ROW,COL LAYER,ROW,COL LAYER,ROW,COL LAYER,ROW,COL
 ----------------------------------------------------------------------
      1.893         2.222         2.013        -1.157        -2.779    
  (  3,  1,  1) (  3,  2,  8) (  3,  3,  3) (  3,  2, 10) (  3,  1,  1)
    -0.1842       -0.4821        -1.199        0.2342       -0.3610E-01
  (  3,  1, 10) (  3,  1,  1) (  3,  1, 10) (  3, 10,  1) (  2,  1,  1)
    -0.5250E-01   -0.1148E-01   -0.1381E-02   -0.9532E-03   -0.1661E-02
  (  2,  7,  1) (  2,  1,  2) (  3, 10,  4) (  3,  1,  4) (  3,  1, 10)
     0.1451E-02    0.6167E-03    0.2143E-02    0.1454E-02    0.2360E-02
  (  3, 10,  1) (  3,  8,  6) (  3,  5, 10) (  3,  6,  1) (  3,  4,  9)
     0.1480E-02    0.2428E-02    0.2168E-02    0.1603E-02    0.1200E-02
  (  3,  4,  1) (  3,  7,  5) (  3,  4,  1) (  3,  1,  1) (  3,  1,  1)
     0.7599E-03    0.8017E-03    0.5435E-03    0.3835E-03    0.2777E-03
  (  3,  1,  1) (  3,  1,  1) (  3,  3,  1) (  3,  1,  1) (  3,  1,  1)
     0.1888E-03    0.1790E-03    0.1319E-03    0.8617E-04    0.6594E-04
  (  3,  1,  1) (  3,  3,  1) (  3,  1,  1) (  3,  1,  1) (  3,  1,  1)
     0.4275E-04    0.4364E-04    0.2937E-04    0.2131E-04    0.1524E-04
  (  3,  1,  1) (  3,  1,  1) (  3,  3,  1) (  3,  1,  1) (  3,  1,  1)
     0.1077E-04    0.5596E-05
  (  3,  1,  1) (  3,  1,  1)


 OUTPUT CONTROL FOR STRESS PERIOD     23   TIME STEP     2
    SAVE HEAD FOR ALL LAYERS

 HEAD WILL BE SAVED ON UNIT   21 AT END OF TIME STEP     2 IN STRESS PERIOD     23
 
 SOLVING FOR HEAD 
    39 ITERATIONS FOR TIME STEP   3 IN STRESS PERIOD   23

 MAXIMUM HEAD CHANGE FOR EACH ITERATION:

    HEAD CHANGE   HEAD CHANGE   HEAD CHANGE   HEAD CHANGE   HEAD CHANGE
  LAYER,ROW,COL LAYER,ROW,COL LAYER,ROW,COL LAYER,ROW,COL LAYER,ROW,COL
 ----------------------------------------------------------------------
      1.466         1.777         1.767       -0.9846        -2.833    
  (  3,  1,  1) (  3,  1, 10) (  3,  2,  1) (  3,  2, 10) (  3,  1,  1)
     0.1786       -0.3307       -0.8878        0.5152        0.3346E-01
  (  2,  5,  1) (  3,  1,  1) (  3,  1, 10) (  3, 10,  1) (  2, 10, 10)
    -0.4045E-01   -0.1291E-01   -0.4885E-02   -0.2457E-02   -0.1120E-02
  (  2,  7,  1) (  2,  1,  2) (  3,  2,  6) (  3,  1, 10) (  3,  1, 10)
    -0.6870E-03    0.1802E-02    0.1461E-02    0.2652E-02    0.2630E-02
  (  2,  1, 10) (  3, 10, 10) (  3,  1,  8) (  3,  6,  3) (  3,  1,  8)
     0.1502E-02    0.1804E-02    0.1215E-02    0.7971E-03    0.5651E-03
  (  3,  1,  1) (  3,  2,  7) (  3,  2,  7) (  3,  1,  7) (  3,  1,  8)
     0.3502E-03    0.3807E-03    0.2675E-03    0.1693E-03    0.1235E-03
  (  3,  1, 10) (  3,  2,  7) (  3,  1,  7) (  3,  1,  8) (  3,  1,  7)
     0.6998E-04    0.8384E-04    0.5639E-04    0.3746E-04    0.2653E-04
  (  3,  1,  1) (  3,  2,  7) (  3,  2,  7) (  3,  1,  7) (  3,  1,  8)
     0.1634E-04    0.1761E-04    0.1247E-04    0.7789E-05
  (  3,  1, 10) (  3,  2,  8) (  3,  1,  7) (  3,  1,  8)


 OUTPUT CONTROL FOR STRESS PERIOD     23   TIME STEP     3
    SAVE HEAD FOR ALL LAYERS

 HEAD WILL BE SAVED ON UNIT   21 AT END OF TIME STEP     3 IN STRESS PERIOD     23
 
 SOLVING FOR HEAD 
    35 ITERATIONS FOR TIME STEP   4 IN STRESS PERIOD   23

 MAXIMUM HEAD CHANGE FOR EACH ITERATION:

    HEAD CHANGE   HEAD CHANGE   HEAD CHANGE   HEAD CHANGE   HEAD CHANGE
  LAYER,ROW,COL LAYER,ROW,COL LAYER,ROW,COL LAYER,ROW,COL LAYER,ROW,COL
 ----------------------------------------------------------------------
      1.078         1.329         1.371       -0.8817        -2.739    
  (  3,  1,  1) (  3,  1, 10) (  3,  2,  1) (  3,  2, 10) (  3,  1,  1)
     0.2203        0.8874E-01    0.1440E-01   -0.1477E-01   -0.1106E-01
  (  3, 10, 10) (  3,  9,  7) (  2,  1,  6) (  3,  1,  1) (  3,  3,  5)
     0.8059E-02   -0.6623E-02   -0.3411E-02   -0.1834E-02    0.2106E-02
  (  2,  6,  1) (  3,  3,  5) (  3,  4,  3) (  3,  3,  6) (  3,  1,  1)
     0.1896E-02    0.3137E-02    0.2588E-02    0.1650E-02    0.1172E-02
  (  3, 10,  1) (  3,  1,  1) (  3,  1, 10) (  3,  1,  1) (  3,  1,  1)
     0.6419E-03    0.7872E-03    0.5665E-03    0.3360E-03    0.2328E-03
  (  3,  1,  1) (  3,  1, 10) (  3,  1,  1) (  3,  1,  1) (  3,  1,  3)
     0.1349E-03    0.1627E-03    0.1120E-03    0.6869E-04    0.4959E-04
  (  3,  1, 10) (  3,  1,  1) (  3,  1, 10) (  3,  1,  1) (  3,  1,  1)
     0.3053E-04    0.3248E-04    0.2365E-04    0.1429E-04    0.9565E-05
  (  2,  7,  1) (  3,  1, 10) (  3,  1,  1) (  3,  1,  1) (  3,  1,  4)


 OUTPUT CONTROL FOR STRESS PERIOD     23   TIME STEP     4
    SAVE HEAD FOR ALL LAYERS

 HEAD WILL BE SAVED ON UNIT   21 AT END OF TIME STEP     4 IN STRESS PERIOD     23
 
 SOLVING FOR HEAD 
    31 ITERATIONS FOR TIME STEP   5 IN STRESS PERIOD   23

 MAXIMUM HEAD CHANGE FOR EACH ITERATION:

    HEAD CHANGE   HEAD CHANGE   HEAD CHANGE   HEAD CHANGE   HEAD CHANGE
  LAYER,ROW,COL LAYER,ROW,COL LAYER,ROW,COL LAYER,ROW,COL LAYER,ROW,COL
 ----------------------------------------------------------------------
     0.7376        0.9010        0.9143       -0.9043        -2.472    
  (  3,  1,  1) (  3,  1, 10) (  3,  2,  1) (  3,  2, 10) (  3,  1,  1)
     0.7094        0.4121        0.1367        0.7062E-01   -0.4817E-01
  (  3,  1, 10) (  3,  9,  3) (  2,  1,  8) (  2, 10,  1) (  2, 10, 10)
     0.7692E-01    0.1344E-01   -0.6049E-02   -0.3159E-02   -0.2108E-02
  (  2,  6,  1) (  2,  1,  2) (  3,  8,  4) (  3,  8,  2) (  3,  8,  3)
    -0.2172E-02   -0.1426E-02   -0.1106E-02   -0.5990E-03   -0.3818E-03
  (  2,  6,  1) (  3,  8,  3) (  3,  8,  3) (  3,  8,  4) (  3,  8,  2)
    -0.1614E-03   -0.2650E-03   -0.2095E-03   -0.1101E-03   -0.7468E-04
  (  3, 10,  6) (  3,  8,  3) (  3,  8,  4) (  3,  8,  2) (  3,  8,  4)
    -0.2754E-04   -0.5029E-04   -0.3884E-04   -0.2156E-04   -0.1366E-04
  (  3,  8,  4) (  3,  8,  3) (  3,  8,  3) (  3,  8,  4) (  3,  8,  3)
    -0.5622E-05
  (  3,  8,  4)


 OUTPUT CONTROL FOR STRESS PERIOD     23   TIME STEP     5
    SAVE HEAD FOR ALL LAYERS

 HEAD WILL BE SAVED ON UNIT   21 AT END OF TIME STEP     5 IN STRESS PERIOD     23
 
 SOLVING FOR HEAD 
    32 ITERATIONS FOR TIME STEP   6 IN STRESS PERIOD   23

 MAXIMUM HEAD CHANGE FOR EACH ITERATION:

    HEAD CHANGE   HEAD CHANGE   HEAD CHANGE   HEAD CHANGE   HEAD CHANGE
  LAYER,ROW,COL LAYER,ROW,COL LAYER,ROW,COL LAYER,ROW,COL LAYER,ROW,COL
 ----------------------------------------------------------------------
     0.4473        0.5163        0.4017        -1.020        -1.030    
  (  3,  1,  1) (  3,  2,  8) (  3,  3,  3) (  3,  1, 10) (  3,  1,  1)
     0.4772        0.2839        0.7918E-01    0.2646E-01   -0.2591E-01
  (  3,  1, 10) (  3,  2,  2) (  2,  1,  9) (  2, 10,  1) (  2, 10, 10)
     0.2653E-01   -0.1054E-01   -0.8524E-02   -0.4314E-02   -0.2595E-02
  (  2,  7,  1) (  3,  2,  5) (  3,  2,  4) (  3,  2,  6) (  3,  2,  5)
    -0.2323E-02   -0.1743E-02   -0.1476E-02   -0.7157E-03   -0.4561E-03
  (  2,  7,  1) (  3,  2,  3) (  3,  2,  5) (  3,  2,  5) (  3,  2,  5)
    -0.3728E-03   -0.3050E-03   -0.2474E-03   -0.1267E-03   -0.7675E-04
  (  2,  8,  1) (  3,  2,  5) (  3,  3,  6) (  3,  2,  5) (  3,  3,  6)
    -0.3952E-04   -0.5144E-04   -0.4358E-04   -0.2186E-04   -0.1384E-04
  (  2,  8,  1) (  3,  3,  6) (  3,  3,  6) (  3,  3,  6) (  3,  3,  6)
    -0.1084E-04   -0.3556E-05
  (  2,  8,  1) (  3,  2,  7)


 OUTPUT CONTROL FOR STRESS PERIOD     23   TIME STEP     6
    PRINT BUDGET
    PRINT HEAD FOR ALL LAYERS
    SAVE HEAD FOR ALL LAYERS
    SAVE DRAWDOWN FOR ALL LAYERS
1
              HEAD IN LAYER   1 AT END OF TIME STEP   6 IN STRESS PERIOD   23
  ---------------------------------------------------------------------------

           1       2       3       4       5       6       7       8       9      10
 ...................................................................................
   1    20.31   19.96   19.29   18.87   18.66   18.66   18.86   19.28   19.95   20.30
   2    19.30   18.79   18.36   18.06   17.91   17.91   18.06   18.36   18.78   19.29
   3    17.85   17.35   16.98   16.73   16.61   16.60   16.73   16.97   17.34   17.84
   4    15.89   15.45   15.15   14.96   14.86   14.86   14.95   15.14   15.44   15.88
   5    13.10   13.01   12.91   12.83   12.78   12.78   12.82   12.90   13.00   13.09
   6    10.66   10.63   10.59   10.56   10.54   10.54   10.56   10.59   10.63   10.65
   7     8.32    8.30    8.27    8.23    8.21    8.21    8.23    8.26    8.30    8.32
   8     6.06    6.01    5.93    5.84    5.79    5.79    5.84    5.93    6.01    6.06
   9     3.99    3.85    3.58    3.29    3.17    3.17    3.29    3.58    3.84    3.99
  10     2.51    2.15    1.36    0.00    0.00    0.00    0.00    1.36    2.14    2.51
1
              HEAD IN LAYER   2 AT END OF TIME STEP   6 IN STRESS PERIOD   23
  ---------------------------------------------------------------------------

           1       2       3       4       5       6       7       8       9      10
 ...................................................................................
   1    -3.49   -3.48   -3.48   -3.49   -3.51   -3.52   -3.54   -3.56   -3.59   -3.62
   2    -3.57   -2.65   -2.94   -3.43   -3.93   -4.30   -4.28   -3.94   -3.59   -3.76
   3    -3.69   -3.18   -3.67   -4.49   -5.64   -7.02   -6.82   -5.50   -4.55   -3.93
   4    -3.84   -3.47   -3.87   -4.47   -5.23   -6.08   -5.93   -5.22   -4.60   -4.09
   5    -4.02   -3.70   -3.87   -4.15   -4.44   -4.66   -4.69   -4.56   -4.38   -4.25
   6    -4.20   -3.91   -3.96   -4.07   -4.19   -4.28   -4.32   -4.30   -4.29   -4.40
   7    -4.40   -4.21   -4.24   -4.30   -4.36   -4.40   -4.42   -4.42   -4.43   -4.56
   8    -4.60   -4.68   -4.74   -4.81   -4.86   -4.88   -4.87   -4.84   -4.80   -4.72
   9    -4.80   -5.25   -5.44   -5.59   -5.67   -5.68   -5.63   -5.50   -5.33   -4.89
  10    -4.99   -5.03   -5.07   -5.10   -5.11   -5.12   -5.11   -5.09   -5.07   -5.04
1
              HEAD IN LAYER   3 AT END OF TIME STEP   6 IN STRESS PERIOD   23
  ---------------------------------------------------------------------------

           1       2       3       4       5       6       7       8       9      10
 ...................................................................................
   1   -23.41  -23.58  -23.90  -24.31  -24.75  -25.11  -25.27  -25.27  -25.19  -25.14
   2   -23.44  -23.70  -24.21  -24.95  -25.82  -26.60  -26.68  -26.28  -25.87  -25.64
   3   -23.13  -23.52  -24.36  -25.76  -27.99  -31.61  -30.76  -28.06  -26.59  -25.93
   4   -21.96  -22.28  -22.93  -23.95  -25.38  -27.26  -26.99  -25.65  -24.77  -24.34
   5   -20.18  -20.35  -20.69  -21.16  -21.70  -22.15  -22.24  -22.06  -21.84  -21.71
   6   -18.30  -18.39  -18.54  -18.75  -18.96  -19.14  -19.23  -19.24  -19.22  -19.19
   7   -16.67  -16.71  -16.78  -16.87  -16.97  -17.05  -17.11  -17.14  -17.16  -17.16
   8   -15.40  -15.42  -15.46  -15.50  -15.55  -15.59  -15.63  -15.66  -15.67  -15.68
   9   -14.55  -14.56  -14.58  -14.61  -14.63  -14.66  -14.68  -14.70  -14.71  -14.72
  10   -14.13  -14.13  -14.15  -14.16  -14.18  -14.20  -14.22  -14.23  -14.24  -14.24

 HEAD WILL BE SAVED ON UNIT   21 AT END OF TIME STEP     6 IN STRESS PERIOD     23

 DRAWDOWN WILL BE SAVED ON UNIT   22 AT END OF TIME STEP     6 IN STRESS PERIOD     23



  -------------------------------------------------------------------------------------
  VOLUMETRIC BUDGET FOR ENTIRE MODEL AT END OF TIME STEP    6 IN STRESS PERIOD     23
  -------------------------------------------------------------------------------------

     CUMULATIVE VOLUMES      L**3       RATES FOR THIS TIME STEP      L**3/T
     ------------------                 ------------------------

           IN:                                      IN:
           ---                                      ---
             STORAGE =    35690342.9327               STORAGE =        3431.7549
       CONSTANT HEAD =      442006.6544         CONSTANT HEAD =         122.6682
               WELLS =   241128000.0000                 WELLS =       30000.0000
    INST. IB STORAGE =    50746480.2852      INST. IB STORAGE =        5103.6820
    DELAY IB STORAGE =   125855158.7029      DELAY IB STORAGE =       15378.7818

            TOTAL IN =   453861988.5751              TOTAL IN =       54036.8869

          OUT:                                     OUT:
          ----                                     ----
             STORAGE =           0.0000               STORAGE =           0.0000
       CONSTANT HEAD =   212764107.6889         CONSTANT HEAD =       24036.9091
               WELLS =   241098000.0000                 WELLS =       30000.0000
    INST. IB STORAGE =       2.1040E-07      INST. IB STORAGE =       1.7000E-11
    DELAY IB STORAGE =       8.3938E-11      DELAY IB STORAGE =           0.0000

           TOTAL OUT =   453862107.6889             TOTAL OUT =       54036.9091

            IN - OUT =        -119.1137              IN - OUT =      -2.2181E-02

 PERCENT DISCREPANCY =          -0.00     PERCENT DISCREPANCY =          -0.00


          TIME SUMMARY AT END OF TIME STEP     6 IN STRESS PERIOD     23
                    SECONDS     MINUTES      HOURS       DAYS        YEARS
                    -----------------------------------------------------------
   TIME STEP LENGTH 9.18681E+06 1.53113E+05  2551.9      106.33     0.29111    
 STRESS PERIOD TIME 3.15619E+07 5.26032E+05  8767.2      365.30      1.0001    
         TOTAL TIME 6.94449E+08 1.15741E+07 1.92902E+05  8037.6      22.006    
 

                               VOLUMETRIC BUDGET FOR SYSTEMS OF DELAY INTERBEDS
                                          AT END OF TIME STEP  6 IN STRESS PERIOD 23

          |   C U M U L A T I V E   V O L U M E S   L**3           | R A T E S   F O R  T H I S  T I M E  S T E P   L**3/T  |
   SYSTEM |    CHANGE IN     BOUNDARY                    PERCENT   |    CHANGE IN     BOUNDARY                    PERCENT   |
   NUMBER |     STORAGE        FLOW           SUM      DISCREPANCY |     STORAGE        FLOW           SUM      DISCREPANCY |
  --------|--------------------------------------------------------|--------------------------------------------------------|
      1     90767.        -90767.       -0.14552E-10   -0.16032E-13     8.9618        -8.9618       -0.35527E-14   -0.39643E-13
      2    0.12576E+09   -0.12576E+09    0.59605E-07    0.47394E-13     15370.        -15370.       -0.72760E-11   -0.47339E-13
  --------|--------------------------------------------------------|--------------------------------------------------------|
 TOTALS:    0.12586E+09   -0.12586E+09    0.59605E-07    0.47360E-13     15379.        -15379.       -0.72760E-11   -0.47312E-13
1
                            STRESS PERIOD NO.     24, LENGTH =   365.3000    
                            -----------------------------------------------

                              NUMBER OF TIME STEPS =     6

                               MULTIPLIER FOR DELT =     1.300

                            INITIAL TIME STEP SIZE =   28.63744    

REUSING NON-PARAMETER WELLS FROM LAST STRESS PERIOD

14 WELLS
 
 SOLVING FOR HEAD 

    43 ITERATIONS FOR TIME STEP   1 IN STRESS PERIOD   24

 MAXIMUM HEAD CHANGE FOR EACH ITERATION:

    HEAD CHANGE   HEAD CHANGE   HEAD CHANGE   HEAD CHANGE   HEAD CHANGE
  LAYER,ROW,COL LAYER,ROW,COL LAYER,ROW,COL LAYER,ROW,COL LAYER,ROW,COL
 ----------------------------------------------------------------------
      2.303         2.582         2.032        -1.427        -2.570    
  (  3,  1,  1) (  3,  2,  8) (  3,  3,  3) (  3,  1, 10) (  3,  1,  1)
    -0.2278       -0.5833        -1.322        -1.028        0.7765    
  (  3,  1, 10) (  3,  1,  1) (  3,  1, 10) (  3,  3,  1) (  3,  1,  1)
     0.1502        0.6879E-02   -0.4793E-02   -0.3106E-02   -0.1928E-02
  (  2,  3,  7) (  2,  2,  1) (  3,  1,  1) (  3,  3, 10) (  3,  1,  1)
    -0.1503E-02    0.5989E-03   -0.7094E-03    0.1362E-02    0.5930E-03
  (  3,  1,  1) (  3,  9,  1) (  3,  8, 10) (  3,  7,  1) (  3,  1,  8)
     0.1492E-02    0.1194E-02    0.1511E-02    0.1733E-02    0.1465E-02
  (  3, 10, 10) (  3,  1,  8) (  3, 10,  6) (  3,  1,  1) (  3,  1,  8)
     0.1006E-02    0.9448E-03    0.6823E-03    0.4840E-03    0.3663E-03
  (  3,  1,  8) (  3,  3,  2) (  3,  1,  8) (  3,  1,  8) (  3,  1,  8)
     0.2428E-03    0.2337E-03    0.1636E-03    0.1204E-03    0.8934E-04
  (  3,  1,  8) (  3,  1,  8) (  3,  1,  8) (  3,  1,  8) (  3,  1,  8)
     0.6139E-04    0.5621E-04    0.4120E-04    0.2937E-04    0.2231E-04
  (  3,  1,  8) (  3,  3,  2) (  3,  1,  8) (  3,  1,  8) (  3,  1,  8)
     0.1499E-04    0.1345E-04    0.9200E-05
  (  3,  1,  8) (  3,  1,  8) (  3,  1,  8)


 OUTPUT CONTROL FOR STRESS PERIOD     24   TIME STEP     1
    SAVE HEAD FOR ALL LAYERS

 HEAD WILL BE SAVED ON UNIT   21 AT END OF TIME STEP     1 IN STRESS PERIOD     24
 
 SOLVING FOR HEAD 
    42 ITERATIONS FOR TIME STEP   2 IN STRESS PERIOD   24

 MAXIMUM HEAD CHANGE FOR EACH ITERATION:

    HEAD CHANGE   HEAD CHANGE   HEAD CHANGE   HEAD CHANGE   HEAD CHANGE
  LAYER,ROW,COL LAYER,ROW,COL LAYER,ROW,COL LAYER,ROW,COL LAYER,ROW,COL
 ----------------------------------------------------------------------
      1.860         2.183         1.993        -1.133        -2.746    
  (  3,  1,  1) (  3,  2,  8) (  3,  3,  3) (  3,  2, 10) (  3,  1,  1)
     0.1811       -0.4737        -1.180        0.2297       -0.3710E-01
  (  2,  6,  1) (  3,  1,  1) (  3,  1, 10) (  3, 10,  1) (  2,  1,  1)
    -0.5165E-01   -0.1153E-01   -0.1448E-02   -0.9236E-03   -0.1628E-02
  (  2,  7,  1) (  2,  1,  2) (  3, 10,  4) (  3,  1,  4) (  3,  1, 10)
     0.1328E-02    0.1096E-02    0.2043E-02    0.1431E-02    0.2273E-02
  (  3, 10,  6) (  3,  9,  1) (  3,  6,  7) (  3,  6,  1) (  3,  1,  4)
     0.1435E-02    0.2433E-02    0.2109E-02    0.1572E-02    0.1178E-02
  (  3,  6,  1) (  3,  7,  6) (  3,  1,  1) (  3,  1,  1) (  3,  1,  1)
     0.7448E-03    0.7869E-03    0.5310E-03    0.3765E-03    0.2721E-03
  (  3,  1,  1) (  3,  1,  1) (  3,  3,  1) (  3,  1,  1) (  3,  1,  1)
     0.1852E-03    0.1749E-03    0.1294E-03    0.8443E-04    0.6469E-04
  (  3,  1,  1) (  3,  3,  1) (  3,  1,  1) (  3,  1,  1) (  3,  1,  1)
     0.4186E-04    0.4281E-04    0.2886E-04    0.2090E-04    0.1493E-04
  (  3,  1,  1) (  3,  1,  1) (  3,  3,  1) (  3,  1,  1) (  3,  1,  1)
     0.1056E-04    0.5485E-05
  (  3,  1,  1) (  3,  1,  1)


 OUTPUT CONTROL FOR STRESS PERIOD     24   TIME STEP     2
    SAVE HEAD FOR ALL LAYERS

 HEAD WILL BE SAVED ON UNIT   21 AT END OF TIME STEP     2 IN STRESS PERIOD     24
 
 SOLVING FOR HEAD 
    39 ITERATIONS FOR TIME STEP   3 IN STRESS PERIOD   24

 MAXIMUM HEAD CHANGE FOR EACH ITERATION:

    HEAD CHANGE   HEAD CHANGE   HEAD CHANGE   HEAD CHANGE   HEAD CHANGE
  LAYER,ROW,COL LAYER,ROW,COL LAYER,ROW,COL LAYER,ROW,COL LAYER,ROW,COL
 ----------------------------------------------------------------------
      1.440         1.745         1.747       -0.9638        -2.801    
  (  3,  1,  1) (  3,  1, 10) (  3,  2,  1) (  3,  2, 10) (  3,  1,  1)
     0.1773       -0.3246       -0.8735        0.5116        0.3263E-01
  (  2,  6,  1) (  3,  1,  1) (  3,  1, 10) (  3, 10,  1) (  2, 10, 10)
    -0.4061E-01   -0.1223E-01   -0.4772E-02   -0.2483E-02   -0.1074E-02
  (  2,  6,  1) (  2,  1,  2) (  3,  2,  6) (  3,  1, 10) (  3,  1, 10)
    -0.6737E-03    0.1788E-02    0.1439E-02    0.2638E-02    0.2573E-02
  (  2,  1, 10) (  3, 10, 10) (  3,  1,  6) (  3,  8,  9) (  3,  1,  6)
     0.1468E-02    0.1771E-02    0.1195E-02    0.7803E-03    0.5516E-03
  (  3,  1,  1) (  3,  2,  5) (  3,  2,  5) (  3,  1,  6) (  3,  1,  7)
     0.3400E-03    0.3730E-03    0.2623E-03    0.1656E-03    0.1209E-03
  (  3,  1, 10) (  3,  2,  6) (  3,  2,  5) (  3,  1,  7) (  3,  1,  6)
     0.6815E-04    0.8241E-04    0.5531E-04    0.3667E-04    0.2584E-04
  (  3,  1,  1) (  3,  2,  5) (  3,  2,  5) (  3,  1,  6) (  3,  1,  7)
     0.1581E-04    0.1721E-04    0.1222E-04    0.7606E-05
  (  3,  1, 10) (  3,  2,  5) (  3,  1,  6) (  3,  1,  7)


 OUTPUT CONTROL FOR STRESS PERIOD     24   TIME STEP     3
    SAVE HEAD FOR ALL LAYERS

 HEAD WILL BE SAVED ON UNIT   21 AT END OF TIME STEP     3 IN STRESS PERIOD     24
 
 SOLVING FOR HEAD 
    35 ITERATIONS FOR TIME STEP   4 IN STRESS PERIOD   24

 MAXIMUM HEAD CHANGE FOR EACH ITERATION:

    HEAD CHANGE   HEAD CHANGE   HEAD CHANGE   HEAD CHANGE   HEAD CHANGE
  LAYER,ROW,COL LAYER,ROW,COL LAYER,ROW,COL LAYER,ROW,COL LAYER,ROW,COL
 ----------------------------------------------------------------------
      1.059         1.306         1.356       -0.8639        -2.710    
  (  3,  1,  1) (  3,  1, 10) (  3,  2,  1) (  3,  2, 10) (  3,  1,  1)
     0.2769        0.8594E-01    0.1481E-01   -0.1448E-01   -0.1085E-01
  (  2,  3,  6) (  3,  9,  7) (  2,  1,  6) (  3,  1,  1) (  3,  3,  5)
     0.8271E-02   -0.6482E-02   -0.3393E-02   -0.1747E-02    0.2029E-02
  (  2,  6,  1) (  3,  3,  5) (  3,  5,  3) (  3,  3,  6) (  3,  1, 10)
     0.1868E-02    0.3127E-02    0.2533E-02    0.1637E-02    0.1150E-02
  (  3, 10,  1) (  3,  1,  1) (  3,  1, 10) (  3,  1,  1) (  3,  1,  1)
     0.6341E-03    0.7811E-03    0.5619E-03    0.3293E-03    0.2313E-03
  (  3,  1,  1) (  3,  2,  2) (  3,  1,  1) (  3,  1,  1) (  3,  1,  1)
     0.1345E-03    0.1614E-03    0.1093E-03    0.6831E-04    0.4805E-04
  (  2,  6,  1) (  3,  1,  1) (  3,  1, 10) (  3,  1,  1) (  3,  1,  1)
     0.3037E-04    0.3232E-04    0.2352E-04    0.1381E-04    0.9449E-05
  (  2,  7,  1) (  3,  2,  2) (  3,  1,  1) (  3,  1,  1) (  3,  1,  1)


 OUTPUT CONTROL FOR STRESS PERIOD     24   TIME STEP     4
    SAVE HEAD FOR ALL LAYERS

 HEAD WILL BE SAVED ON UNIT   21 AT END OF TIME STEP     4 IN STRESS PERIOD     24
 
 SOLVING FOR HEAD 
    31 ITERATIONS FOR TIME STEP   5 IN STRESS PERIOD   24

 MAXIMUM HEAD CHANGE FOR EACH ITERATION:

    HEAD CHANGE   HEAD CHANGE   HEAD CHANGE   HEAD CHANGE   HEAD CHANGE
  LAYER,ROW,COL LAYER,ROW,COL LAYER,ROW,COL LAYER,ROW,COL LAYER,ROW,COL
 ----------------------------------------------------------------------
     0.7244        0.8844        0.9038       -0.8893        -2.446    
  (  3,  1,  1) (  3,  1, 10) (  3,  2,  1) (  3,  2, 10) (  3,  1,  1)
     0.7074        0.4077        0.1363        0.7031E-01   -0.4794E-01
  (  3,  1, 10) (  3,  9,  3) (  2,  1,  7) (  2, 10,  1) (  2, 10, 10)
     0.7667E-01    0.1341E-01   -0.5969E-02   -0.3096E-02   -0.2095E-02
  (  2,  6,  1) (  2,  1,  2) (  3,  8,  4) (  3,  7,  2) (  3,  8,  3)
    -0.2139E-02   -0.1399E-02   -0.1075E-02   -0.5947E-03   -0.3706E-03
  (  2,  6,  1) (  3,  8,  3) (  3,  8,  3) (  3,  8,  3) (  3,  7,  3)
    -0.1599E-03   -0.2616E-03   -0.2073E-03   -0.1068E-03   -0.7503E-04
  (  3, 10,  5) (  3,  8,  3) (  3,  8,  4) (  3,  7,  3) (  3,  8,  3)
    -0.2725E-04   -0.4943E-04   -0.3745E-04   -0.2161E-04   -0.1308E-04
  (  3,  8,  4) (  3,  8,  3) (  3,  8,  3) (  3,  8,  3) (  3,  7,  3)
    -0.5662E-05
  (  3,  8,  3)


 OUTPUT CONTROL FOR STRESS PERIOD     24   TIME STEP     5
    SAVE HEAD FOR ALL LAYERS

 HEAD WILL BE SAVED ON UNIT   21 AT END OF TIME STEP     5 IN STRESS PERIOD     24
 
 SOLVING FOR HEAD 
    32 ITERATIONS FOR TIME STEP   6 IN STRESS PERIOD   24

 MAXIMUM HEAD CHANGE FOR EACH ITERATION:

    HEAD CHANGE   HEAD CHANGE   HEAD CHANGE   HEAD CHANGE   HEAD CHANGE
  LAYER,ROW,COL LAYER,ROW,COL LAYER,ROW,COL LAYER,ROW,COL LAYER,ROW,COL
 ----------------------------------------------------------------------
     0.4391        0.5064        0.3966        -1.006        -1.011    
  (  3,  1,  1) (  3,  2,  8) (  3,  3,  3) (  3,  1, 10) (  3,  1,  1)
     0.4717        0.2801        0.7820E-01    0.2616E-01   -0.2569E-01
  (  3,  1, 10) (  3,  2,  2) (  2,  1,  9) (  2, 10,  1) (  2, 10, 10)
     0.2625E-01   -0.1034E-01   -0.8363E-02   -0.4234E-02   -0.2536E-02
  (  2,  7,  1) (  3,  2,  6) (  3,  2,  3) (  3,  2,  6) (  3,  2,  6)
    -0.2263E-02   -0.1714E-02   -0.1443E-02   -0.6993E-03   -0.4454E-03
  (  2,  7,  1) (  3,  2,  2) (  3,  2,  6) (  3,  3,  6) (  3,  2,  6)
    -0.3687E-03   -0.2988E-03   -0.2421E-03   -0.1238E-03   -0.7494E-04
  (  2,  8,  1) (  3,  2,  7) (  3,  3,  5) (  3,  3,  6) (  3,  3,  6)
    -0.3892E-04   -0.5026E-04   -0.4276E-04   -0.2128E-04   -0.1364E-04
  (  2,  8,  1) (  3,  3,  6) (  3,  3,  6) (  3,  3,  6) (  3,  3,  6)
    -0.1076E-04   -0.3526E-05
  (  2,  8,  1) (  3,  2,  7)


 OUTPUT CONTROL FOR STRESS PERIOD     24   TIME STEP     6
    PRINT BUDGET
    PRINT HEAD FOR ALL LAYERS
    SAVE HEAD FOR ALL LAYERS
    SAVE DRAWDOWN FOR ALL LAYERS
1
              HEAD IN LAYER   1 AT END OF TIME STEP   6 IN STRESS PERIOD   24
  ---------------------------------------------------------------------------

           1       2       3       4       5       6       7       8       9      10
 ...................................................................................
   1    20.23   19.87   19.20   18.78   18.57   18.57   18.78   19.20   19.87   20.22
   2    19.21   18.71   18.28   17.98   17.82   17.82   17.97   18.27   18.70   19.20
   3    17.77   17.27   16.90   16.65   16.52   16.52   16.64   16.89   17.26   17.76
   4    15.81   15.37   15.07   14.88   14.78   14.78   14.87   15.06   15.36   15.80
   5    13.03   12.94   12.84   12.75   12.71   12.71   12.75   12.83   12.93   13.02
   6    10.60   10.57   10.53   10.49   10.47   10.47   10.49   10.53   10.56   10.59
   7     8.27    8.25    8.21    8.18    8.16    8.16    8.18    8.21    8.24    8.26
   8     6.02    5.97    5.89    5.80    5.75    5.75    5.80    5.88    5.97    6.02
   9     3.96    3.82    3.56    3.26    3.14    3.14    3.26    3.56    3.82    3.96
  10     2.49    2.13    1.35    0.00    0.00    0.00    0.00    1.34    2.13    2.49
1
              HEAD IN LAYER   2 AT END OF TIME STEP   6 IN STRESS PERIOD   24
  ---------------------------------------------------------------------------

           1       2       3       4       5       6       7       8       9      10
 ...................................................................................
   1    -3.79   -3.78   -3.78   -3.79   -3.81   -3.82   -3.84   -3.86   -3.89   -3.91
   2    -3.87   -2.96   -3.26   -3.75   -4.25   -4.62   -4.59   -4.26   -3.91   -4.06
   3    -3.99   -3.49   -3.99   -4.80   -5.94   -7.09   -7.01   -5.81   -4.86   -4.22
   4    -4.13   -3.78   -4.18   -4.78   -5.53   -6.38   -6.24   -5.53   -4.90   -4.38
   5    -4.30   -4.00   -4.17   -4.44   -4.73   -4.96   -4.98   -4.85   -4.68   -4.53
   6    -4.48   -4.19   -4.24   -4.35   -4.47   -4.56   -4.60   -4.59   -4.57   -4.68
   7    -4.67   -4.48   -4.50   -4.56   -4.62   -4.67   -4.69   -4.69   -4.70   -4.84
   8    -4.87   -4.93   -5.00   -5.06   -5.11   -5.13   -5.13   -5.10   -5.06   -4.99
   9    -5.07   -5.50   -5.68   -5.83   -5.91   -5.92   -5.87   -5.74   -5.57   -5.15
  10    -5.25   -5.29   -5.33   -5.36   -5.37   -5.38   -5.37   -5.35   -5.33   -5.30
1
              HEAD IN LAYER   3 AT END OF TIME STEP   6 IN STRESS PERIOD   24
  ---------------------------------------------------------------------------

           1       2       3       4       5       6       7       8       9      10
 ...................................................................................
   1   -23.97  -24.14  -24.45  -24.87  -25.31  -25.67  -25.83  -25.83  -25.76  -25.70
   2   -23.99  -24.25  -24.77  -25.50  -26.37  -27.15  -27.24  -26.83  -26.43  -26.19
   3   -23.68  -24.07  -24.90  -26.30  -28.54  -32.16  -31.31  -28.61  -27.14  -26.48
   4   -22.49  -22.81  -23.46  -24.48  -25.91  -27.79  -27.52  -26.18  -25.30  -24.87
   5   -20.69  -20.87  -21.20  -21.68  -22.21  -22.67  -22.76  -22.58  -22.36  -22.23
   6   -18.80  -18.88  -19.04  -19.25  -19.46  -19.64  -19.73  -19.74  -19.71  -19.69
   7   -17.15  -17.19  -17.26  -17.35  -17.45  -17.53  -17.59  -17.62  -17.64  -17.64
   8   -15.87  -15.89  -15.92  -15.97  -16.01  -16.06  -16.09  -16.12  -16.14  -16.14
   9   -15.01  -15.02  -15.04  -15.06  -15.09  -15.12  -15.14  -15.16  -15.17  -15.17
  10   -14.58  -14.58  -14.60  -14.61  -14.63  -14.65  -14.67  -14.68  -14.69  -14.69

 HEAD WILL BE SAVED ON UNIT   21 AT END OF TIME STEP     6 IN STRESS PERIOD     24

 DRAWDOWN WILL BE SAVED ON UNIT   22 AT END OF TIME STEP     6 IN STRESS PERIOD     24



  -------------------------------------------------------------------------------------
  VOLUMETRIC BUDGET FOR ENTIRE MODEL AT END OF TIME STEP    6 IN STRESS PERIOD     24
  -------------------------------------------------------------------------------------

     CUMULATIVE VOLUMES      L**3       RATES FOR THIS TIME STEP      L**3/T
     ------------------                 ------------------------

           IN:                                      IN:
           ---                                      ---
             STORAGE =    36930082.4113               STORAGE =        3368.5543
       CONSTANT HEAD =      488180.6071         CONSTANT HEAD =         128.8951
               WELLS =   252087000.0000                 WELLS =       30000.0000
    INST. IB STORAGE =    52604407.6223      INST. IB STORAGE =        5074.0234
    DELAY IB STORAGE =   131450791.7410      DELAY IB STORAGE =       15277.6209

            TOTAL IN =   473560462.3817              TOTAL IN =       53849.0937

          OUT:                                     OUT:
          ----                                     ----
             STORAGE =           0.0000               STORAGE =           0.0000
       CONSTANT HEAD =   221503591.7340         CONSTANT HEAD =       23849.1157
               WELLS =   252057000.0000                 WELLS =       30000.0000
    INST. IB STORAGE =       2.2448E-07      INST. IB STORAGE =       2.5509E-11
    DELAY IB STORAGE =       8.3938E-11      DELAY IB STORAGE =           0.0000

           TOTAL OUT =   473560591.7340             TOTAL OUT =       53849.1157

            IN - OUT =        -129.3522              IN - OUT =      -2.2014E-02

 PERCENT DISCREPANCY =          -0.00     PERCENT DISCREPANCY =          -0.00


          TIME SUMMARY AT END OF TIME STEP     6 IN STRESS PERIOD     24
                    SECONDS     MINUTES      HOURS       DAYS        YEARS
                    -----------------------------------------------------------
   TIME STEP LENGTH 9.18681E+06 1.53113E+05  2551.9      106.33     0.29111    
 STRESS PERIOD TIME 3.15619E+07 5.26032E+05  8767.2      365.30      1.0001    
         TOTAL TIME 7.26011E+08 1.21002E+07 2.01670E+05  8402.9      23.006    
 

                               VOLUMETRIC BUDGET FOR SYSTEMS OF DELAY INTERBEDS
                                          AT END OF TIME STEP  6 IN STRESS PERIOD 24

          |   C U M U L A T I V E   V O L U M E S   L**3           | R A T E S   F O R  T H I S  T I M E  S T E P   L**3/T  |
   SYSTEM |    CHANGE IN     BOUNDARY                    PERCENT   |    CHANGE IN     BOUNDARY                    PERCENT   |
   NUMBER |     STORAGE        FLOW           SUM      DISCREPANCY |     STORAGE        FLOW           SUM      DISCREPANCY |
  --------|--------------------------------------------------------|--------------------------------------------------------|
      1     94039.        -94039.       -0.14552E-10   -0.15474E-13     8.7828        -8.7828        0.35527E-14    0.40451E-13
      2    0.13136E+09   -0.13136E+09    0.59605E-07    0.45376E-13     15269.        -15269.       -0.18190E-11   -0.11913E-13
  --------|--------------------------------------------------------|--------------------------------------------------------|
 TOTALS:    0.13145E+09   -0.13145E+09    0.59605E-07    0.45344E-13     15278.        -15278.       -0.18190E-11   -0.11906E-13
1
                            STRESS PERIOD NO.     25, LENGTH =   365.3000    
                            -----------------------------------------------

                              NUMBER OF TIME STEPS =     6

                               MULTIPLIER FOR DELT =     1.300

                            INITIAL TIME STEP SIZE =   28.63744    

REUSING NON-PARAMETER WELLS FROM LAST STRESS PERIOD

14 WELLS
 
 SOLVING FOR HEAD 

    43 ITERATIONS FOR TIME STEP   1 IN STRESS PERIOD   25

 MAXIMUM HEAD CHANGE FOR EACH ITERATION:

    HEAD CHANGE   HEAD CHANGE   HEAD CHANGE   HEAD CHANGE   HEAD CHANGE
  LAYER,ROW,COL LAYER,ROW,COL LAYER,ROW,COL LAYER,ROW,COL LAYER,ROW,COL
 ----------------------------------------------------------------------
      2.264         2.539         2.011        -1.398        -2.538    
  (  3,  1,  1) (  3,  2,  8) (  3,  3,  3) (  3,  1, 10) (  3,  1,  1)
    -0.2235       -0.5737        -1.303        -1.018        0.7697    
  (  3,  1, 10) (  3,  1,  1) (  3,  1, 10) (  3,  4,  1) (  3,  1,  1)
    -0.5435E-01    0.6874E-02   -0.4718E-02   -0.3051E-02   -0.1886E-02
  (  2,  7,  1) (  2,  2,  1) (  3,  1,  1) (  3,  3, 10) (  3,  1,  1)
    -0.1490E-02    0.5783E-03   -0.7129E-03    0.1349E-02    0.6628E-03
  (  3,  1,  1) (  3,  9,  1) (  3,  8, 10) (  3,  7,  1) (  3,  3,  2)
     0.1370E-02    0.1176E-02    0.1441E-02    0.1710E-02    0.1470E-02
  (  3, 10, 10) (  3,  3,  2) (  3, 10,  6) (  3,  1, 10) (  3,  1,  7)
     0.1016E-02    0.9584E-03    0.6901E-03    0.4893E-03    0.3714E-03
  (  3,  1,  7) (  3,  3,  2) (  3,  1,  7) (  3,  1,  7) (  3,  1,  7)
     0.2463E-03    0.2360E-03    0.1661E-03    0.1222E-03    0.9056E-04
  (  3,  1,  7) (  3,  1,  7) (  3,  1,  7) (  3,  1,  7) (  3,  1,  7)
     0.6239E-04    0.5717E-04    0.4188E-04    0.2986E-04    0.2275E-04
  (  3,  1,  7) (  3,  3,  2) (  3,  1,  7) (  3,  1,  7) (  3,  1,  7)
     0.1531E-04    0.1304E-04    0.8720E-05
  (  3,  1,  7) (  3,  1,  7) (  3,  1,  7)


 OUTPUT CONTROL FOR STRESS PERIOD     25   TIME STEP     1
    SAVE HEAD FOR ALL LAYERS

 HEAD WILL BE SAVED ON UNIT   21 AT END OF TIME STEP     1 IN STRESS PERIOD     25
 
 SOLVING FOR HEAD 
    41 ITERATIONS FOR TIME STEP   2 IN STRESS PERIOD   25

 MAXIMUM HEAD CHANGE FOR EACH ITERATION:

    HEAD CHANGE   HEAD CHANGE   HEAD CHANGE   HEAD CHANGE   HEAD CHANGE
  LAYER,ROW,COL LAYER,ROW,COL LAYER,ROW,COL LAYER,ROW,COL LAYER,ROW,COL
 ----------------------------------------------------------------------
      1.828         2.147         1.972        -1.110        -2.714    
  (  3,  1,  1) (  3,  2,  8) (  3,  3,  3) (  3,  2, 10) (  3,  1,  1)
     0.1802       -0.4657        -1.163        0.2270       -0.3618E-01
  (  2,  6,  1) (  3,  1,  1) (  3,  1, 10) (  3, 10,  1) (  2,  1,  1)
    -0.5112E-01   -0.1109E-01   -0.1484E-02   -0.1112E-02   -0.1466E-02
  (  2,  7,  1) (  2,  1,  2) (  3, 10,  3) (  3,  3,  1) (  3,  1,  8)
     0.1402E-02    0.8662E-03    0.2126E-02    0.1004E-02    0.2406E-02
  (  3, 10,  1) (  3, 10,  6) (  3,  1, 10) (  3,  6,  1) (  3,  1, 10)
     0.1201E-02    0.2467E-02    0.2050E-02    0.1494E-02    0.1111E-02
  (  3,  1,  2) (  3,  8,  9) (  3,  1,  1) (  3,  1,  2) (  3,  1,  2)
     0.6909E-03    0.7280E-03    0.4955E-03    0.3507E-03    0.2576E-03
  (  3,  1,  2) (  3,  1,  2) (  3,  1,  2) (  3,  1,  2) (  3,  1,  2)
     0.1615E-03    0.1674E-03    0.1189E-03    0.8103E-04    0.6017E-04
  (  3,  1,  2) (  3,  2,  6) (  3,  1,  2) (  3,  1,  2) (  3,  1,  2)
     0.3813E-04    0.3932E-04    0.2694E-04    0.1918E-04    0.1415E-04
  (  3,  1,  2) (  3,  1,  2) (  3,  1,  2) (  3,  1,  2) (  3,  1,  2)
     0.9009E-05
  (  3,  1,  2)


 OUTPUT CONTROL FOR STRESS PERIOD     25   TIME STEP     2
    SAVE HEAD FOR ALL LAYERS

 HEAD WILL BE SAVED ON UNIT   21 AT END OF TIME STEP     2 IN STRESS PERIOD     25
 
 SOLVING FOR HEAD 
    39 ITERATIONS FOR TIME STEP   3 IN STRESS PERIOD   25

 MAXIMUM HEAD CHANGE FOR EACH ITERATION:

    HEAD CHANGE   HEAD CHANGE   HEAD CHANGE   HEAD CHANGE   HEAD CHANGE
  LAYER,ROW,COL LAYER,ROW,COL LAYER,ROW,COL LAYER,ROW,COL LAYER,ROW,COL
 ----------------------------------------------------------------------
      1.416         1.716         1.728       -0.9443        -2.770    
  (  3,  1,  1) (  3,  1, 10) (  3,  2,  1) (  3,  2, 10) (  3,  1,  1)
     0.1764       -0.3186       -0.8594        0.5079        0.3196E-01
  (  2,  6,  1) (  3,  1,  1) (  3,  1, 10) (  3, 10,  1) (  2, 10, 10)
    -0.3980E-01   -0.1263E-01   -0.4660E-02   -0.2484E-02   -0.1034E-02
  (  2,  6,  1) (  2,  1,  2) (  3,  2,  6) (  3,  1, 10) (  3,  1, 10)
    -0.7023E-03    0.1763E-02    0.1409E-02    0.2638E-02    0.2514E-02
  (  2,  1, 10) (  3, 10, 10) (  3,  1,  6) (  3,  8,  9) (  3,  1,  6)
     0.1433E-02    0.1734E-02    0.1173E-02    0.7622E-03    0.5402E-03
  (  3,  1,  1) (  3,  2,  5) (  3,  2,  5) (  3,  1,  6) (  3,  1,  6)
     0.3307E-03    0.3660E-03    0.2563E-03    0.1625E-03    0.1182E-03
  (  3,  1, 10) (  3,  2,  5) (  3,  2,  5) (  3,  1,  6) (  3,  1,  5)
     0.6616E-04    0.8049E-04    0.5431E-04    0.3581E-04    0.2533E-04
  (  3,  1,  1) (  3,  2,  5) (  3,  2,  5) (  3,  1,  5) (  3,  1,  6)
     0.1535E-04    0.1688E-04    0.1195E-04    0.7484E-05
  (  3,  1, 10) (  3,  2,  5) (  3,  1,  5) (  3,  1,  5)


 OUTPUT CONTROL FOR STRESS PERIOD     25   TIME STEP     3
    SAVE HEAD FOR ALL LAYERS

 HEAD WILL BE SAVED ON UNIT   21 AT END OF TIME STEP     3 IN STRESS PERIOD     25
 
 SOLVING FOR HEAD 
    35 ITERATIONS FOR TIME STEP   4 IN STRESS PERIOD   25

 MAXIMUM HEAD CHANGE FOR EACH ITERATION:

    HEAD CHANGE   HEAD CHANGE   HEAD CHANGE   HEAD CHANGE   HEAD CHANGE
  LAYER,ROW,COL LAYER,ROW,COL LAYER,ROW,COL LAYER,ROW,COL LAYER,ROW,COL
 ----------------------------------------------------------------------
      1.041         1.283         1.345       -0.8708        -2.686    
  (  3,  1,  1) (  3,  1, 10) (  3,  3,  3) (  3, 10, 10) (  3,  1,  1)
     0.4243        0.8559E-01    0.1594E-01   -0.1421E-01   -0.1069E-01
  (  2,  3,  6) (  2, 10,  2) (  2,  1,  6) (  3,  1,  1) (  3,  3,  4)
     0.9029E-02   -0.6431E-02   -0.3313E-02   -0.1637E-02    0.1920E-02
  (  2,  6,  1) (  3,  3,  4) (  3,  5,  4) (  3,  2,  7) (  3,  1, 10)
     0.1831E-02    0.3082E-02    0.2488E-02    0.1599E-02    0.1133E-02
  (  3, 10,  1) (  3,  1,  1) (  3,  2,  1) (  3,  1,  1) (  3,  1,  1)
     0.6139E-03    0.7688E-03    0.5487E-03    0.3245E-03    0.2245E-03
  (  3,  1,  1) (  3,  2,  2) (  3,  1,  1) (  3,  1,  1) (  3,  1,  1)
     0.1301E-03    0.1577E-03    0.1073E-03    0.6604E-04    0.4750E-04
  (  2,  6,  1) (  3,  1,  1) (  3,  2,  1) (  3,  1,  1) (  3,  1,  1)
     0.2985E-04    0.3163E-04    0.2271E-04    0.1368E-04    0.9225E-05
  (  2,  7,  1) (  3,  2,  2) (  3,  1,  1) (  3,  1,  1) (  3,  1,  1)


 OUTPUT CONTROL FOR STRESS PERIOD     25   TIME STEP     4
    SAVE HEAD FOR ALL LAYERS

 HEAD WILL BE SAVED ON UNIT   21 AT END OF TIME STEP     4 IN STRESS PERIOD     25
 
 SOLVING FOR HEAD 
    31 ITERATIONS FOR TIME STEP   5 IN STRESS PERIOD   25

 MAXIMUM HEAD CHANGE FOR EACH ITERATION:

    HEAD CHANGE   HEAD CHANGE   HEAD CHANGE   HEAD CHANGE   HEAD CHANGE
  LAYER,ROW,COL LAYER,ROW,COL LAYER,ROW,COL LAYER,ROW,COL LAYER,ROW,COL
 ----------------------------------------------------------------------
     0.7118        0.8687        0.8943       -0.8766        -2.415    
  (  3,  1,  1) (  3,  1, 10) (  3,  2,  1) (  3,  2, 10) (  3,  1,  1)
     0.7024        0.4037        0.1351        0.6990E-01   -0.4770E-01
  (  3,  1, 10) (  3,  9,  3) (  2,  1,  7) (  2, 10,  1) (  2, 10, 10)
     0.7614E-01    0.1351E-01   -0.5897E-02   -0.3066E-02   -0.2063E-02
  (  2,  6,  1) (  2,  1,  2) (  3,  7,  3) (  3,  7,  2) (  3,  8,  3)
    -0.2119E-02   -0.1380E-02   -0.1064E-02   -0.5855E-03   -0.3669E-03
  (  2,  6,  1) (  3,  8,  3) (  3,  7,  3) (  3,  8,  3) (  3,  7,  4)
    -0.1578E-03   -0.2583E-03   -0.2037E-03   -0.1058E-03   -0.7380E-04
  (  3, 10,  6) (  3,  8,  3) (  3,  8,  3) (  3,  7,  4) (  3,  8,  3)
    -0.2688E-04   -0.4858E-04   -0.3716E-04   -0.2123E-04   -0.1305E-04
  (  3,  8,  4) (  3,  8,  3) (  3,  7,  4) (  3,  8,  3) (  3,  7,  4)
    -0.5448E-05
  (  3,  8,  3)


 OUTPUT CONTROL FOR STRESS PERIOD     25   TIME STEP     5
    SAVE HEAD FOR ALL LAYERS

 HEAD WILL BE SAVED ON UNIT   21 AT END OF TIME STEP     5 IN STRESS PERIOD     25
 
 SOLVING FOR HEAD 
    32 ITERATIONS FOR TIME STEP   6 IN STRESS PERIOD   25

 MAXIMUM HEAD CHANGE FOR EACH ITERATION:

    HEAD CHANGE   HEAD CHANGE   HEAD CHANGE   HEAD CHANGE   HEAD CHANGE
  LAYER,ROW,COL LAYER,ROW,COL LAYER,ROW,COL LAYER,ROW,COL LAYER,ROW,COL
 ----------------------------------------------------------------------
     0.4313        0.4969        0.3918       -0.9938       -0.9916    
  (  3,  1,  1) (  3,  2,  8) (  3,  3,  3) (  3,  1, 10) (  3,  1,  1)
     0.4645        0.2757        0.7705E-01    0.2583E-01   -0.2540E-01
  (  3,  1, 10) (  3,  2,  2) (  2,  1,  9) (  2, 10,  1) (  2, 10, 10)
     0.2602E-01   -0.1017E-01   -0.8233E-02   -0.4161E-02   -0.2495E-02
  (  2,  7,  1) (  3,  2,  6) (  3,  2,  3) (  3,  2,  6) (  3,  2,  6)
    -0.2237E-02   -0.1686E-02   -0.1418E-02   -0.6876E-03   -0.4374E-03
  (  2,  7,  1) (  3,  2,  2) (  3,  2,  6) (  3,  3,  6) (  3,  2,  6)
    -0.3641E-03   -0.2934E-03   -0.2379E-03   -0.1213E-03   -0.7358E-04
  (  2,  8,  1) (  3,  2,  6) (  3,  3,  5) (  3,  2,  6) (  3,  3,  6)
    -0.3853E-04   -0.4931E-04   -0.4185E-04   -0.2089E-04   -0.1329E-04
  (  2,  8,  1) (  3,  3,  6) (  3,  3,  6) (  3,  3,  6) (  3,  3,  6)
    -0.1061E-04   -0.3445E-05
  (  2,  8,  1) (  3,  2,  7)


 OUTPUT CONTROL FOR STRESS PERIOD     25   TIME STEP     6
    PRINT BUDGET
    PRINT HEAD FOR ALL LAYERS
    SAVE HEAD FOR ALL LAYERS
    SAVE DRAWDOWN FOR ALL LAYERS
1
              HEAD IN LAYER   1 AT END OF TIME STEP   6 IN STRESS PERIOD   25
  ---------------------------------------------------------------------------

           1       2       3       4       5       6       7       8       9      10
 ...................................................................................
   1    20.14   19.79   19.12   18.69   18.49   18.49   18.69   19.11   19.78   20.13
   2    19.13   18.62   18.19   17.89   17.74   17.74   17.89   18.19   18.61   19.12
   3    17.69   17.19   16.82   16.57   16.44   16.44   16.56   16.81   17.18   17.68
   4    15.73   15.30   14.99   14.80   14.71   14.70   14.80   14.99   15.29   15.72
   5    12.96   12.87   12.77   12.68   12.64   12.64   12.68   12.76   12.86   12.95
   6    10.53   10.51   10.47   10.43   10.41   10.41   10.43   10.46   10.50   10.53
   7     8.21    8.19    8.16    8.13    8.10    8.10    8.12    8.16    8.19    8.21
   8     5.98    5.93    5.85    5.76    5.71    5.71    5.76    5.84    5.92    5.97
   9     3.93    3.79    3.53    3.24    3.12    3.12    3.24    3.53    3.79    3.93
  10     2.47    2.11    1.33    0.00    0.00    0.00    0.00    1.33    2.11    2.47
1
              HEAD IN LAYER   2 AT END OF TIME STEP   6 IN STRESS PERIOD   25
  ---------------------------------------------------------------------------

           1       2       3       4       5       6       7       8       9      10
 ...................................................................................
   1    -4.08   -4.08   -4.08   -4.09   -4.10   -4.12   -4.14   -4.16   -4.18   -4.21
   2    -4.16   -3.28   -3.58   -4.07   -4.57   -4.93   -4.91   -4.58   -4.22   -4.36
   3    -4.28   -3.80   -4.30   -5.11   -6.23   -7.19   -7.06   -6.10   -5.17   -4.51
   4    -4.42   -4.08   -4.48   -5.08   -5.84   -6.68   -6.54   -5.83   -5.20   -4.67
   5    -4.58   -4.29   -4.46   -4.73   -5.02   -5.25   -5.27   -5.14   -4.97   -4.81
   6    -4.76   -4.46   -4.52   -4.63   -4.75   -4.84   -4.88   -4.87   -4.85   -4.96
   7    -4.94   -4.75   -4.77   -4.83   -4.89   -4.93   -4.95   -4.95   -4.97   -5.11
   8    -5.14   -5.19   -5.25   -5.31   -5.36   -5.38   -5.38   -5.35   -5.31   -5.26
   9    -5.33   -5.74   -5.93   -6.07   -6.15   -6.16   -6.11   -5.98   -5.82   -5.42
  10    -5.51   -5.55   -5.59   -5.62   -5.63   -5.64   -5.63   -5.61   -5.59   -5.56
1
              HEAD IN LAYER   3 AT END OF TIME STEP   6 IN STRESS PERIOD   25
  ---------------------------------------------------------------------------

           1       2       3       4       5       6       7       8       9      10
 ...................................................................................
   1   -24.52  -24.69  -25.01  -25.42  -25.86  -26.22  -26.38  -26.38  -26.31  -26.25
   2   -24.54  -24.80  -25.31  -26.05  -26.92  -27.70  -27.78  -27.38  -26.98  -26.74
   3   -24.22  -24.61  -25.44  -26.84  -29.08  -32.70  -31.85  -29.14  -27.67  -27.02
   4   -23.02  -23.33  -23.98  -25.01  -26.44  -28.32  -28.05  -26.71  -25.83  -25.40
   5   -21.20  -21.38  -21.72  -22.19  -22.72  -23.18  -23.27  -23.09  -22.87  -22.74
   6   -19.29  -19.38  -19.53  -19.74  -19.96  -20.13  -20.22  -20.23  -20.21  -20.19
   7   -17.63  -17.66  -17.74  -17.83  -17.92  -18.01  -18.07  -18.10  -18.12  -18.12
   8   -16.33  -16.35  -16.39  -16.43  -16.48  -16.52  -16.56  -16.59  -16.60  -16.61
   9   -15.46  -15.47  -15.49  -15.52  -15.54  -15.57  -15.59  -15.61  -15.62  -15.63
  10   -15.03  -15.03  -15.05  -15.06  -15.08  -15.10  -15.12  -15.13  -15.14  -15.14

 HEAD WILL BE SAVED ON UNIT   21 AT END OF TIME STEP     6 IN STRESS PERIOD     25

 DRAWDOWN WILL BE SAVED ON UNIT   22 AT END OF TIME STEP     6 IN STRESS PERIOD     25



  -------------------------------------------------------------------------------------
  VOLUMETRIC BUDGET FOR ENTIRE MODEL AT END OF TIME STEP    6 IN STRESS PERIOD     25
  -------------------------------------------------------------------------------------

     CUMULATIVE VOLUMES      L**3       RATES FOR THIS TIME STEP      L**3/T
     ------------------                 ------------------------

           IN:                                      IN:
           ---                                      ---
             STORAGE =    38147065.9049               STORAGE =        3307.2180
       CONSTANT HEAD =      536624.4463         CONSTANT HEAD =         135.0997
               WELLS =   263046000.0000                 WELLS =       30000.0000
    INST. IB STORAGE =    54451945.9837      INST. IB STORAGE =        5045.8469
    DELAY IB STORAGE =   137009373.4810      DELAY IB STORAGE =       15176.1831

            TOTAL IN =   493191009.8159              TOTAL IN =       53664.3478

          OUT:                                     OUT:
          ----                                     ----
             STORAGE =           0.0000               STORAGE =           0.0000
       CONSTANT HEAD =   230175143.9120         CONSTANT HEAD =       23664.3689
               WELLS =   263016000.0000                 WELLS =       30000.0000
    INST. IB STORAGE =       2.3914E-07      INST. IB STORAGE =       2.5700E-11
    DELAY IB STORAGE =       8.3938E-11      DELAY IB STORAGE =           0.0000

           TOTAL OUT =   493191143.9120             TOTAL OUT =       53664.3689

            IN - OUT =        -134.0961              IN - OUT =      -2.1166E-02

 PERCENT DISCREPANCY =          -0.00     PERCENT DISCREPANCY =          -0.00


          TIME SUMMARY AT END OF TIME STEP     6 IN STRESS PERIOD     25
                    SECONDS     MINUTES      HOURS       DAYS        YEARS
                    -----------------------------------------------------------
   TIME STEP LENGTH 9.18681E+06 1.53113E+05  2551.9      106.33     0.29111    
 STRESS PERIOD TIME 3.15619E+07 5.26032E+05  8767.2      365.30      1.0001    
         TOTAL TIME 7.57572E+08 1.26262E+07 2.10437E+05  8768.2      24.006    
 

                               VOLUMETRIC BUDGET FOR SYSTEMS OF DELAY INTERBEDS
                                          AT END OF TIME STEP  6 IN STRESS PERIOD 25

          |   C U M U L A T I V E   V O L U M E S   L**3           | R A T E S   F O R  T H I S  T I M E  S T E P   L**3/T  |
   SYSTEM |    CHANGE IN     BOUNDARY                    PERCENT   |    CHANGE IN     BOUNDARY                    PERCENT   |
   NUMBER |     STORAGE        FLOW           SUM      DISCREPANCY |     STORAGE        FLOW           SUM      DISCREPANCY |
  --------|--------------------------------------------------------|--------------------------------------------------------|
      1     97246.        -97246.       -0.14552E-10   -0.14964E-13     8.6118        -8.6118        0.53291E-14    0.61881E-13
      2    0.13691E+09   -0.13691E+09    0.59605E-07    0.43535E-13     15168.        -15168.       -0.36380E-11   -0.23985E-13
  --------|--------------------------------------------------------|--------------------------------------------------------|
 TOTALS:    0.13701E+09   -0.13701E+09    0.59605E-07    0.43504E-13     15176.        -15176.       -0.36380E-11   -0.23972E-13
1
                            STRESS PERIOD NO.     26, LENGTH =   365.3000    
                            -----------------------------------------------

                              NUMBER OF TIME STEPS =     6

                               MULTIPLIER FOR DELT =     1.300

                            INITIAL TIME STEP SIZE =   28.63744    

REUSING NON-PARAMETER WELLS FROM LAST STRESS PERIOD

14 WELLS
 
 SOLVING FOR HEAD 

    43 ITERATIONS FOR TIME STEP   1 IN STRESS PERIOD   26

 MAXIMUM HEAD CHANGE FOR EACH ITERATION:

    HEAD CHANGE   HEAD CHANGE   HEAD CHANGE   HEAD CHANGE   HEAD CHANGE
  LAYER,ROW,COL LAYER,ROW,COL LAYER,ROW,COL LAYER,ROW,COL LAYER,ROW,COL
 ----------------------------------------------------------------------
      2.227         2.498         1.992        -1.372        -2.508    
  (  3,  1,  1) (  3,  2,  8) (  3,  3,  3) (  3,  1, 10) (  3,  1,  1)
    -0.2195       -0.5646        -1.284        -1.015        0.7918    
  (  3,  1, 10) (  3,  1,  1) (  3,  1, 10) (  3,  4,  1) (  3, 10, 10)
    -0.5230E-01    0.6795E-02   -0.4646E-02   -0.3010E-02   -0.1845E-02
  (  2,  7,  1) (  2,  2,  1) (  3,  1,  1) (  3,  3, 10) (  3,  1,  1)
    -0.1485E-02    0.5193E-03   -0.7395E-03    0.1327E-02    0.6241E-03
  (  3,  1,  1) (  3,  9,  1) (  3,  8, 10) (  3,  7,  1) (  3,  3,  3)
     0.1515E-02    0.1153E-02    0.1522E-02    0.1728E-02    0.1360E-02
  (  3, 10, 10) (  3,  3,  3) (  3, 10,  9) (  3,  1,  8) (  3,  3,  3)
     0.8863E-03    0.9256E-03    0.6434E-03    0.4494E-03    0.3354E-03
  (  3,  1, 10) (  3,  3,  3) (  3,  3,  3) (  3,  3,  3) (  3,  3,  3)
     0.2064E-03    0.2260E-03    0.1570E-03    0.1103E-03    0.8207E-04
  (  3,  1,  1) (  3,  3,  3) (  3,  3,  3) (  3,  3,  3) (  3,  3,  3)
     0.5139E-04    0.5513E-04    0.3857E-04    0.2707E-04    0.2025E-04
  (  3,  1, 10) (  3,  3,  3) (  3,  3,  3) (  3,  3,  3) (  3,  3,  3)
     0.1256E-04    0.1133E-04    0.7212E-05
  (  3,  3,  3) (  3,  3,  3) (  3,  1,  1)


 OUTPUT CONTROL FOR STRESS PERIOD     26   TIME STEP     1
    SAVE HEAD FOR ALL LAYERS

 HEAD WILL BE SAVED ON UNIT   21 AT END OF TIME STEP     1 IN STRESS PERIOD     26
 
 SOLVING FOR HEAD 
    42 ITERATIONS FOR TIME STEP   2 IN STRESS PERIOD   26

 MAXIMUM HEAD CHANGE FOR EACH ITERATION:

    HEAD CHANGE   HEAD CHANGE   HEAD CHANGE   HEAD CHANGE   HEAD CHANGE
  LAYER,ROW,COL LAYER,ROW,COL LAYER,ROW,COL LAYER,ROW,COL LAYER,ROW,COL
 ----------------------------------------------------------------------
      1.798         2.113         1.953        -1.089        -2.684    
  (  3,  1,  1) (  3,  2,  8) (  3,  3,  3) (  3,  2, 10) (  3,  1,  1)
     0.1793       -0.4580        -1.146        0.2194       -0.3673E-01
  (  2,  6,  1) (  3,  1,  1) (  3,  1, 10) (  3, 10,  1) (  2,  1,  1)
    -0.5024E-01   -0.1131E-01   -0.1698E-02   -0.1028E-02   -0.1438E-02
  (  2,  7,  1) (  2,  1,  2) (  3, 10,  3) (  3,  1, 10) (  3,  1,  8)
     0.1307E-02    0.4606E-03    0.2089E-02    0.1053E-02    0.2369E-02
  (  3, 10,  1) (  3,  9,  3) (  3,  1, 10) (  3,  1,  1) (  3,  1, 10)
     0.1316E-02    0.2483E-02    0.2037E-02    0.1508E-02    0.1138E-02
  (  3,  1,  1) (  3,  8,  8) (  3,  1,  1) (  3,  1,  1) (  3,  1,  1)
     0.7181E-03    0.7576E-03    0.4926E-03    0.3638E-03    0.2615E-03
  (  3,  1,  1) (  3,  1,  1) (  3,  3,  1) (  3,  1,  1) (  3,  1,  1)
     0.1791E-03    0.1648E-03    0.1248E-03    0.8116E-04    0.6267E-04
  (  3,  1,  1) (  3,  2,  6) (  3,  1,  1) (  3,  1,  1) (  3,  1,  1)
     0.4039E-04    0.4130E-04    0.2662E-04    0.2024E-04    0.1435E-04
  (  3,  1,  1) (  3,  1,  1) (  3,  3,  1) (  3,  1,  1) (  3,  1,  1)
     0.1021E-04    0.5278E-05
  (  3,  1,  1) (  3,  1,  1)


 OUTPUT CONTROL FOR STRESS PERIOD     26   TIME STEP     2
    SAVE HEAD FOR ALL LAYERS

 HEAD WILL BE SAVED ON UNIT   21 AT END OF TIME STEP     2 IN STRESS PERIOD     26
 
 SOLVING FOR HEAD 
    39 ITERATIONS FOR TIME STEP   3 IN STRESS PERIOD   26

 MAXIMUM HEAD CHANGE FOR EACH ITERATION:

    HEAD CHANGE   HEAD CHANGE   HEAD CHANGE   HEAD CHANGE   HEAD CHANGE
  LAYER,ROW,COL LAYER,ROW,COL LAYER,ROW,COL LAYER,ROW,COL LAYER,ROW,COL
 ----------------------------------------------------------------------
      1.392         1.688         1.711       -0.9407        -2.740    
  (  3,  1,  1) (  3,  1, 10) (  3,  3,  3) (  3, 10, 10) (  3,  1,  1)
     0.2451       -0.3130       -0.8461        0.5043        0.3130E-01
  (  2,  3,  6) (  3,  1,  1) (  3,  1, 10) (  3, 10,  1) (  2, 10, 10)
    -0.3936E-01   -0.1270E-01   -0.4562E-02   -0.2489E-02   -0.9923E-03
  (  2,  6,  1) (  2,  1,  2) (  3,  1,  1) (  3,  1, 10) (  3,  1, 10)
    -0.6615E-03    0.1732E-02    0.1391E-02    0.2621E-02    0.2467E-02
  (  2,  1, 10) (  3, 10, 10) (  3,  1,  5) (  3,  9,  4) (  3,  1,  4)
     0.1415E-02    0.1739E-02    0.1206E-02    0.7675E-03    0.5377E-03
  (  3,  1,  1) (  3,  2,  3) (  3,  3,  3) (  3,  3,  3) (  3,  3,  3)
     0.3219E-03    0.3757E-03    0.2678E-03    0.1656E-03    0.1214E-03
  (  3,  1, 10) (  3,  3,  3) (  3,  3,  3) (  3,  3,  3) (  3,  3,  3)
     0.6511E-04    0.8351E-04    0.5807E-04    0.3774E-04    0.2634E-04
  (  3,  1,  1) (  3,  3,  3) (  3,  3,  3) (  3,  3,  3) (  3,  3,  3)
     0.1490E-04    0.1738E-04    0.1259E-04    0.7070E-05
  (  3,  1, 10) (  3,  3,  3) (  3,  3,  3) (  3,  1,  3)


 OUTPUT CONTROL FOR STRESS PERIOD     26   TIME STEP     3
    SAVE HEAD FOR ALL LAYERS

 HEAD WILL BE SAVED ON UNIT   21 AT END OF TIME STEP     3 IN STRESS PERIOD     26
 
 SOLVING FOR HEAD 
    35 ITERATIONS FOR TIME STEP   4 IN STRESS PERIOD   26

 MAXIMUM HEAD CHANGE FOR EACH ITERATION:

    HEAD CHANGE   HEAD CHANGE   HEAD CHANGE   HEAD CHANGE   HEAD CHANGE
  LAYER,ROW,COL LAYER,ROW,COL LAYER,ROW,COL LAYER,ROW,COL LAYER,ROW,COL
 ----------------------------------------------------------------------
      1.024         1.262         1.332       -0.8773        -2.653    
  (  3,  1,  1) (  3,  1, 10) (  3,  3,  3) (  3, 10, 10) (  3,  1,  1)
     0.6262        0.8608E-01    0.1612E-01   -0.1395E-01   -0.1053E-01
  (  2,  3,  6) (  2, 10,  2) (  2,  1,  6) (  3,  1,  1) (  3,  3,  4)
     0.9174E-02   -0.6308E-02   -0.3310E-02   -0.1585E-02    0.1910E-02
  (  2,  6,  1) (  3,  3,  4) (  3,  5,  3) (  3,  2,  7) (  3,  1, 10)
     0.1805E-02    0.3040E-02    0.2451E-02    0.1571E-02    0.1112E-02
  (  3, 10,  1) (  3,  1,  1) (  3,  2,  1) (  3,  1,  1) (  3,  1,  1)
     0.6026E-03    0.7567E-03    0.5391E-03    0.3186E-03    0.2203E-03
  (  3,  1,  1) (  3,  2,  2) (  3,  1,  1) (  3,  1,  1) (  3,  1,  1)
     0.1293E-03    0.1549E-03    0.1056E-03    0.6482E-04    0.4658E-04
  (  2,  6,  1) (  3,  1,  1) (  3,  2,  1) (  3,  1,  1) (  3,  1,  1)
     0.2943E-04    0.3114E-04    0.2229E-04    0.1341E-04    0.8979E-05
  (  2,  7,  1) (  3,  2,  2) (  3,  1,  1) (  3,  1,  1) (  3,  1,  1)


 OUTPUT CONTROL FOR STRESS PERIOD     26   TIME STEP     4
    SAVE HEAD FOR ALL LAYERS

 HEAD WILL BE SAVED ON UNIT   21 AT END OF TIME STEP     4 IN STRESS PERIOD     26
 
 SOLVING FOR HEAD 
    31 ITERATIONS FOR TIME STEP   5 IN STRESS PERIOD   26

 MAXIMUM HEAD CHANGE FOR EACH ITERATION:

    HEAD CHANGE   HEAD CHANGE   HEAD CHANGE   HEAD CHANGE   HEAD CHANGE
  LAYER,ROW,COL LAYER,ROW,COL LAYER,ROW,COL LAYER,ROW,COL LAYER,ROW,COL
 ----------------------------------------------------------------------
     0.6998        0.8539        0.8843       -0.8685        -2.387    
  (  3,  1,  1) (  3,  1, 10) (  3,  3,  3) (  3, 10, 10) (  3,  1,  1)
     0.6974        0.3998        0.1343        0.6950E-01   -0.4742E-01
  (  3,  1, 10) (  3,  9,  3) (  2,  1,  7) (  2, 10,  1) (  2, 10, 10)
     0.7568E-01    0.1355E-01   -0.5850E-02   -0.3042E-02   -0.2042E-02
  (  2,  6,  1) (  2,  1,  2) (  3,  7,  3) (  3,  7,  2) (  3,  8,  2)
    -0.2090E-02   -0.1363E-02   -0.1057E-02   -0.5793E-03   -0.3647E-03
  (  2,  6,  1) (  3,  8,  3) (  3,  7,  3) (  3,  8,  3) (  3,  7,  3)
    -0.1565E-03   -0.2550E-03   -0.2013E-03   -0.1051E-03   -0.7306E-04
  (  3, 10,  5) (  3,  8,  3) (  3,  8,  3) (  3,  7,  3) (  3,  8,  3)
    -0.2694E-04   -0.4792E-04   -0.3687E-04   -0.2101E-04   -0.1293E-04
  (  3,  8,  1) (  3,  8,  3) (  3,  7,  3) (  3,  8,  3) (  3,  7,  3)
    -0.5282E-05
  (  3,  8,  3)


 OUTPUT CONTROL FOR STRESS PERIOD     26   TIME STEP     5
    SAVE HEAD FOR ALL LAYERS

 HEAD WILL BE SAVED ON UNIT   21 AT END OF TIME STEP     5 IN STRESS PERIOD     26
 
 SOLVING FOR HEAD 
    32 ITERATIONS FOR TIME STEP   6 IN STRESS PERIOD   26

 MAXIMUM HEAD CHANGE FOR EACH ITERATION:

    HEAD CHANGE   HEAD CHANGE   HEAD CHANGE   HEAD CHANGE   HEAD CHANGE
  LAYER,ROW,COL LAYER,ROW,COL LAYER,ROW,COL LAYER,ROW,COL LAYER,ROW,COL
 ----------------------------------------------------------------------
    -0.5406        0.5050        0.3874       -0.9817       -0.9786    
  (  2,  3,  6) (  2,  3,  6) (  3,  3,  3) (  3,  2, 10) (  3,  1,  1)
     0.4612        0.2735        0.7654E-01    0.2570E-01   -0.2531E-01
  (  3,  1, 10) (  3,  2,  2) (  2,  1,  9) (  2, 10,  1) (  2, 10, 10)
     0.2587E-01   -0.1006E-01   -0.8128E-02   -0.4122E-02   -0.2468E-02
  (  2,  7,  1) (  3,  2,  6) (  3,  2,  3) (  3,  2,  6) (  3,  2,  6)
    -0.2204E-02   -0.1667E-02   -0.1405E-02   -0.6797E-03   -0.4341E-03
  (  2,  7,  1) (  3,  2,  2) (  3,  2,  6) (  3,  3,  6) (  3,  2,  6)
    -0.3595E-03   -0.2908E-03   -0.2354E-03   -0.1206E-03   -0.7271E-04
  (  2,  8,  1) (  3,  2,  6) (  3,  3,  5) (  3,  2,  6) (  3,  3,  6)
    -0.3786E-04   -0.4874E-04   -0.4148E-04   -0.2065E-04   -0.1318E-04
  (  2,  8,  1) (  3,  3,  6) (  3,  3,  6) (  3,  3,  6) (  3,  3,  6)
    -0.1053E-04   -0.3383E-05
  (  2,  8,  1) (  3,  2,  6)


 OUTPUT CONTROL FOR STRESS PERIOD     26   TIME STEP     6
    PRINT BUDGET
    PRINT HEAD FOR ALL LAYERS
    SAVE HEAD FOR ALL LAYERS
    SAVE DRAWDOWN FOR ALL LAYERS
1
              HEAD IN LAYER   1 AT END OF TIME STEP   6 IN STRESS PERIOD   26
  ---------------------------------------------------------------------------

           1       2       3       4       5       6       7       8       9      10
 ...................................................................................
   1    20.06   19.70   19.03   18.61   18.40   18.40   18.61   19.03   19.70   20.05
   2    19.05   18.54   18.11   17.81   17.65   17.65   17.80   18.10   18.53   19.04
   3    17.61   17.11   16.74   16.49   16.36   16.36   16.48   16.73   17.10   17.60
   4    15.66   15.22   14.92   14.73   14.63   14.63   14.72   14.91   15.21   15.65
   5    12.89   12.80   12.70   12.61   12.57   12.57   12.61   12.69   12.79   12.88
   6    10.47   10.44   10.40   10.37   10.35   10.35   10.37   10.40   10.44   10.46
   7     8.16    8.14    8.11    8.07    8.05    8.05    8.07    8.10    8.14    8.16
   8     5.94    5.89    5.81    5.72    5.68    5.67    5.72    5.80    5.88    5.93
   9     3.90    3.76    3.51    3.22    3.10    3.10    3.22    3.50    3.76    3.90
  10     2.45    2.10    1.32    0.00    0.00    0.00    0.00    1.32    2.09    2.45
1
              HEAD IN LAYER   2 AT END OF TIME STEP   6 IN STRESS PERIOD   26
  ---------------------------------------------------------------------------

           1       2       3       4       5       6       7       8       9      10
 ...................................................................................
   1    -4.38   -4.37   -4.37   -4.38   -4.40   -4.41   -4.43   -4.45   -4.48   -4.50
   2    -4.45   -3.58   -3.89   -4.38   -4.88   -5.24   -5.21   -4.89   -4.53   -4.65
   3    -4.56   -4.10   -4.60   -5.42   -6.53   -7.32   -7.15   -6.40   -5.47   -4.80
   4    -4.70   -4.37   -4.78   -5.38   -6.13   -6.97   -6.83   -6.13   -5.50   -4.95
   5    -4.86   -4.57   -4.75   -5.02   -5.31   -5.54   -5.56   -5.43   -5.26   -5.09
   6    -5.03   -4.74   -4.79   -4.91   -5.03   -5.12   -5.15   -5.14   -5.13   -5.23
   7    -5.21   -5.01   -5.03   -5.10   -5.15   -5.20   -5.22   -5.22   -5.23   -5.38
   8    -5.40   -5.44   -5.50   -5.57   -5.61   -5.64   -5.63   -5.60   -5.57   -5.53
   9    -5.59   -5.99   -6.17   -6.31   -6.39   -6.40   -6.35   -6.23   -6.07   -5.68
  10    -5.77   -5.81   -5.85   -5.87   -5.89   -5.89   -5.89   -5.87   -5.85   -5.82
1
              HEAD IN LAYER   3 AT END OF TIME STEP   6 IN STRESS PERIOD   26
  ---------------------------------------------------------------------------

           1       2       3       4       5       6       7       8       9      10
 ...................................................................................
   1   -25.06  -25.23  -25.55  -25.97  -26.41  -26.76  -26.93  -26.93  -26.85  -26.80
   2   -25.08  -25.34  -25.85  -26.59  -27.46  -28.24  -28.32  -27.92  -27.52  -27.28
   3   -24.75  -25.14  -25.97  -27.38  -29.61  -33.23  -32.38  -29.68  -28.21  -27.55
   4   -23.54  -23.85  -24.50  -25.53  -26.96  -28.84  -28.57  -27.23  -26.35  -25.92
   5   -21.71  -21.88  -22.22  -22.69  -23.23  -23.69  -23.78  -23.60  -23.38  -23.25
   6   -19.79  -19.87  -20.03  -20.23  -20.45  -20.62  -20.71  -20.73  -20.70  -20.68
   7   -18.10  -18.14  -18.21  -18.31  -18.40  -18.49  -18.55  -18.58  -18.59  -18.60
   8   -16.80  -16.82  -16.85  -16.90  -16.94  -16.99  -17.03  -17.05  -17.07  -17.07
   9   -15.92  -15.93  -15.95  -15.97  -16.00  -16.03  -16.05  -16.07  -16.08  -16.08
  10   -15.48  -15.49  -15.50  -15.52  -15.53  -15.55  -15.57  -15.58  -15.59  -15.60

 HEAD WILL BE SAVED ON UNIT   21 AT END OF TIME STEP     6 IN STRESS PERIOD     26

 DRAWDOWN WILL BE SAVED ON UNIT   22 AT END OF TIME STEP     6 IN STRESS PERIOD     26



  -------------------------------------------------------------------------------------
  VOLUMETRIC BUDGET FOR ENTIRE MODEL AT END OF TIME STEP    6 IN STRESS PERIOD     26
  -------------------------------------------------------------------------------------

     CUMULATIVE VOLUMES      L**3       RATES FOR THIS TIME STEP      L**3/T
     ------------------                 ------------------------

           IN:                                      IN:
           ---                                      ---
             STORAGE =    39342257.4209               STORAGE =        3248.6843
       CONSTANT HEAD =      587329.6913         CONSTANT HEAD =         141.2805
               WELLS =   274005000.0000                 WELLS =       30000.0000
    INST. IB STORAGE =    56289097.8281      INST. IB STORAGE =        5017.2318
    DELAY IB STORAGE =   142531032.7634      DELAY IB STORAGE =       15075.3813

            TOTAL IN =   512754717.7037              TOTAL IN =       53482.5780

          OUT:                                     OUT:
          ----                                     ----
             STORAGE =           0.0000               STORAGE =           0.0000
       CONSTANT HEAD =   238779861.5972         CONSTANT HEAD =       23482.5985
               WELLS =   273975000.0000                 WELLS =       30000.0000
    INST. IB STORAGE =       2.5441E-07      INST. IB STORAGE =       3.0775E-11
    DELAY IB STORAGE =       1.0291E-10      DELAY IB STORAGE =           0.0000

           TOTAL OUT =   512754861.5972             TOTAL OUT =       53482.5985

            IN - OUT =        -143.8935              IN - OUT =      -2.0474E-02

 PERCENT DISCREPANCY =          -0.00     PERCENT DISCREPANCY =          -0.00


          TIME SUMMARY AT END OF TIME STEP     6 IN STRESS PERIOD     26
                    SECONDS     MINUTES      HOURS       DAYS        YEARS
                    -----------------------------------------------------------
   TIME STEP LENGTH 9.18681E+06 1.53113E+05  2551.9      106.33     0.29111    
 STRESS PERIOD TIME 3.15619E+07 5.26032E+05  8767.2      365.30      1.0001    
         TOTAL TIME 7.89134E+08 1.31522E+07 2.19204E+05  9133.5      25.006    
 

                               VOLUMETRIC BUDGET FOR SYSTEMS OF DELAY INTERBEDS
                                          AT END OF TIME STEP  6 IN STRESS PERIOD 26

          |   C U M U L A T I V E   V O L U M E S   L**3           | R A T E S   F O R  T H I S  T I M E  S T E P   L**3/T  |
   SYSTEM |    CHANGE IN     BOUNDARY                    PERCENT   |    CHANGE IN     BOUNDARY                    PERCENT   |
   NUMBER |     STORAGE        FLOW           SUM      DISCREPANCY |     STORAGE        FLOW           SUM      DISCREPANCY |
  --------|--------------------------------------------------------|--------------------------------------------------------|
      1    0.10040E+06   -0.10040E+06   -0.14552E-10   -0.14494E-13     8.4591        -8.4591       -0.17764E-14   -0.20999E-13
      2    0.14243E+09   -0.14243E+09    0.89407E-07    0.62772E-13     15067.        -15067.        0.72760E-11    0.48291E-13
  --------|--------------------------------------------------------|--------------------------------------------------------|
 TOTALS:    0.14253E+09   -0.14253E+09    0.89407E-07    0.62728E-13     15075.        -15075.        0.72760E-11    0.48264E-13
1
                            STRESS PERIOD NO.     27, LENGTH =   365.3000    
                            -----------------------------------------------

                              NUMBER OF TIME STEPS =     6

                               MULTIPLIER FOR DELT =     1.300

                            INITIAL TIME STEP SIZE =   28.63744    

REUSING NON-PARAMETER WELLS FROM LAST STRESS PERIOD

14 WELLS
 
 SOLVING FOR HEAD 

    43 ITERATIONS FOR TIME STEP   1 IN STRESS PERIOD   27

 MAXIMUM HEAD CHANGE FOR EACH ITERATION:

    HEAD CHANGE   HEAD CHANGE   HEAD CHANGE   HEAD CHANGE   HEAD CHANGE
  LAYER,ROW,COL LAYER,ROW,COL LAYER,ROW,COL LAYER,ROW,COL LAYER,ROW,COL
 ----------------------------------------------------------------------
      2.191         2.460         1.972        -1.347        -2.479    
  (  3,  1,  1) (  3,  2,  8) (  3,  3,  3) (  3,  1, 10) (  3,  1,  1)
    -0.2157       -0.5560        -1.266        -1.006        0.7876    
  (  3,  1, 10) (  3,  1,  1) (  3,  1, 10) (  3,  4,  1) (  3, 10, 10)
     0.1423        0.6807E-02   -0.4576E-02   -0.2965E-02   -0.1804E-02
  (  2,  4,  7) (  2,  2,  1) (  3,  1,  1) (  3,  3, 10) (  3,  1,  1)
    -0.1474E-02    0.5016E-03   -0.7451E-03    0.1316E-02    0.5914E-03
  (  3,  1,  1) (  3,  9,  1) (  3,  8, 10) (  3,  7,  1) (  3,  3,  4)
     0.1229E-02    0.1111E-02    0.1594E-02    0.1646E-02    0.1329E-02
  (  3, 10,  4) (  3,  3,  4) (  3, 10, 10) (  3,  1,  8) (  3,  3,  4)
     0.8842E-03    0.9028E-03    0.6311E-03    0.4380E-03    0.3285E-03
  (  3,  1, 10) (  3,  3,  4) (  3,  3,  4) (  3,  3,  4) (  3,  3,  4)
     0.2098E-03    0.2205E-03    0.1530E-03    0.1080E-03    0.7976E-04
  (  3,  1,  5) (  3,  3,  4) (  3,  3,  4) (  3,  3,  4) (  3,  3,  4)
     0.5247E-04    0.5361E-04    0.3772E-04    0.2629E-04    0.1978E-04
  (  3,  1,  5) (  3,  3,  4) (  3,  3,  4) (  3,  3,  4) (  3,  3,  4)
     0.1257E-04    0.1118E-04    0.7089E-05
  (  3,  1,  5) (  3,  1, 10) (  3,  1,  9)


 OUTPUT CONTROL FOR STRESS PERIOD     27   TIME STEP     1
    SAVE HEAD FOR ALL LAYERS

 HEAD WILL BE SAVED ON UNIT   21 AT END OF TIME STEP     1 IN STRESS PERIOD     27
 
 SOLVING FOR HEAD 
    42 ITERATIONS FOR TIME STEP   2 IN STRESS PERIOD   27

 MAXIMUM HEAD CHANGE FOR EACH ITERATION:

    HEAD CHANGE   HEAD CHANGE   HEAD CHANGE   HEAD CHANGE   HEAD CHANGE
  LAYER,ROW,COL LAYER,ROW,COL LAYER,ROW,COL LAYER,ROW,COL LAYER,ROW,COL
 ----------------------------------------------------------------------
      1.770         2.081         1.934        -1.080        -2.654    
  (  3,  1,  1) (  3,  2,  8) (  3,  3,  3) (  3, 10, 10) (  3,  1,  1)
     0.1784       -0.4507        -1.130        0.2164       -0.3615E-01
  (  2,  6,  1) (  3,  1,  1) (  3,  1, 10) (  3, 10,  1) (  2,  1,  1)
    -0.4946E-01   -0.1146E-01   -0.1733E-02   -0.1090E-02   -0.1413E-02
  (  2,  7,  1) (  2,  1,  2) (  3, 10,  3) (  3,  3,  1) (  3,  1,  8)
     0.1292E-02    0.4346E-03    0.2100E-02    0.9854E-03    0.2367E-02
  (  3, 10,  1) (  3,  9,  3) (  3,  1, 10) (  3,  1,  1) (  3,  1, 10)
     0.1260E-02    0.2544E-02    0.1997E-02    0.1462E-02    0.1118E-02
  (  3,  1,  1) (  3,  8,  2) (  3,  1,  1) (  3,  1,  1) (  3,  1,  1)
     0.7030E-03    0.7380E-03    0.4741E-03    0.3582E-03    0.2536E-03
  (  3,  1,  1) (  3,  1,  1) (  3,  1,  1) (  3,  1,  1) (  3,  1,  1)
     0.1772E-03    0.1560E-03    0.1226E-03    0.7866E-04    0.6208E-04
  (  3,  1,  1) (  3,  1,  1) (  3,  1,  1) (  3,  1,  1) (  3,  1,  1)
     0.3970E-04    0.4040E-04    0.2573E-04    0.2011E-04    0.1391E-04
  (  3,  1,  1) (  3,  1,  1) (  3,  1,  1) (  3,  1,  1) (  3,  1,  1)
     0.1020E-04    0.5217E-05
  (  3,  1,  1) (  3,  1,  1)


 OUTPUT CONTROL FOR STRESS PERIOD     27   TIME STEP     2
    SAVE HEAD FOR ALL LAYERS

 HEAD WILL BE SAVED ON UNIT   21 AT END OF TIME STEP     2 IN STRESS PERIOD     27
 
 SOLVING FOR HEAD 
    39 ITERATIONS FOR TIME STEP   3 IN STRESS PERIOD   27

 MAXIMUM HEAD CHANGE FOR EACH ITERATION:

    HEAD CHANGE   HEAD CHANGE   HEAD CHANGE   HEAD CHANGE   HEAD CHANGE
  LAYER,ROW,COL LAYER,ROW,COL LAYER,ROW,COL LAYER,ROW,COL LAYER,ROW,COL
 ----------------------------------------------------------------------
      1.370         1.661         1.693       -0.9476        -2.706    
  (  3,  1,  1) (  3,  1, 10) (  3,  3,  3) (  3, 10, 10) (  3,  1,  1)
     0.4307       -0.3088       -0.8350        0.5006        0.3072E-01
  (  2,  3,  6) (  3,  1,  1) (  3,  1, 10) (  3, 10,  1) (  2, 10, 10)
    -0.3893E-01   -0.1269E-01   -0.4488E-02   -0.2470E-02   -0.9519E-03
  (  2,  6,  1) (  2,  1,  2) (  3,  1,  1) (  3,  1, 10) (  3,  1, 10)
    -0.6783E-03    0.1715E-02    0.1373E-02    0.2613E-02    0.2425E-02
  (  2,  1, 10) (  3, 10, 10) (  3,  1,  4) (  3,  9,  5) (  3,  1,  3)
     0.1407E-02    0.1711E-02    0.1187E-02    0.7550E-03    0.5291E-03
  (  3,  1,  1) (  3,  3,  3) (  3,  3,  3) (  3,  3,  3) (  3,  3,  3)
     0.3144E-03    0.3697E-03    0.2634E-03    0.1628E-03    0.1193E-03
  (  3,  1, 10) (  3,  3,  3) (  3,  3,  3) (  3,  3,  3) (  3,  3,  3)
     0.6458E-04    0.8207E-04    0.5710E-04    0.3706E-04    0.2588E-04
  (  3,  1,  1) (  3,  3,  3) (  3,  3,  3) (  3,  3,  3) (  3,  3,  3)
     0.1454E-04    0.1671E-04    0.1215E-04    0.7020E-05
  (  3,  1, 10) (  3,  3,  3) (  3,  3,  3) (  3,  1,  3)


 OUTPUT CONTROL FOR STRESS PERIOD     27   TIME STEP     3
    SAVE HEAD FOR ALL LAYERS

 HEAD WILL BE SAVED ON UNIT   21 AT END OF TIME STEP     3 IN STRESS PERIOD     27
 
 SOLVING FOR HEAD 
    35 ITERATIONS FOR TIME STEP   4 IN STRESS PERIOD   27

 MAXIMUM HEAD CHANGE FOR EACH ITERATION:

    HEAD CHANGE   HEAD CHANGE   HEAD CHANGE   HEAD CHANGE   HEAD CHANGE
  LAYER,ROW,COL LAYER,ROW,COL LAYER,ROW,COL LAYER,ROW,COL LAYER,ROW,COL
 ----------------------------------------------------------------------
      1.007         1.242         1.318       -0.8842        -2.624    
  (  3,  1,  1) (  3,  1, 10) (  3,  3,  3) (  3, 10, 10) (  3,  1,  1)
     0.6570        0.8706E-01    0.1667E-01   -0.1370E-01   -0.1039E-01
  (  2,  3,  6) (  2, 10,  2) (  2,  1,  6) (  3,  1,  1) (  3,  3,  4)
     0.9515E-02   -0.6206E-02   -0.3315E-02   -0.1546E-02    0.1766E-02
  (  2,  6,  1) (  3,  3,  4) (  3,  5,  3) (  3,  2,  7) (  3,  1,  2)
     0.1727E-02    0.2977E-02    0.2394E-02    0.1533E-02    0.1085E-02
  (  3, 10,  1) (  3,  1,  1) (  3,  2,  1) (  3,  1,  1) (  3,  1,  1)
     0.5882E-03    0.7387E-03    0.5262E-03    0.3109E-03    0.2148E-03
  (  3,  1,  1) (  3,  2,  2) (  3,  1,  1) (  3,  1,  1) (  3,  1,  1)
     0.1280E-03    0.1511E-03    0.1030E-03    0.6325E-04    0.4543E-04
  (  2,  6,  1) (  3,  1,  1) (  3,  2,  1) (  3,  1,  1) (  3,  1,  1)
     0.2817E-04    0.3036E-04    0.2175E-04    0.1307E-04    0.8656E-05
  (  2,  7,  1) (  3,  2,  2) (  3,  1,  1) (  3,  1,  1) (  3,  1, 10)


 OUTPUT CONTROL FOR STRESS PERIOD     27   TIME STEP     4
    SAVE HEAD FOR ALL LAYERS

 HEAD WILL BE SAVED ON UNIT   21 AT END OF TIME STEP     4 IN STRESS PERIOD     27
 
 SOLVING FOR HEAD 
    31 ITERATIONS FOR TIME STEP   5 IN STRESS PERIOD   27

 MAXIMUM HEAD CHANGE FOR EACH ITERATION:

    HEAD CHANGE   HEAD CHANGE   HEAD CHANGE   HEAD CHANGE   HEAD CHANGE
  LAYER,ROW,COL LAYER,ROW,COL LAYER,ROW,COL LAYER,ROW,COL LAYER,ROW,COL
 ----------------------------------------------------------------------
     0.6884        0.8400        0.8756       -0.8714        -2.363    
  (  3,  1,  1) (  3,  1, 10) (  3,  3,  3) (  3, 10, 10) (  3,  1,  1)
     0.6947        0.3957        0.1336        0.6909E-01   -0.4717E-01
  (  3,  1, 10) (  3,  9,  3) (  2,  1,  7) (  2, 10,  1) (  2, 10, 10)
     0.7531E-01    0.1343E-01   -0.5788E-02   -0.3006E-02   -0.2014E-02
  (  2,  6,  1) (  2,  1,  2) (  3,  7,  3) (  3,  7,  2) (  3,  8,  2)
    -0.2084E-02   -0.1344E-02   -0.1045E-02   -0.5712E-03   -0.3601E-03
  (  2,  6,  1) (  3,  8,  3) (  3,  7,  3) (  3,  8,  3) (  3,  7,  3)
    -0.1527E-03   -0.2513E-03   -0.1985E-03   -0.1038E-03   -0.7199E-04
  (  3, 10,  5) (  3,  8,  3) (  3,  8,  3) (  3,  7,  3) (  3,  8,  3)
    -0.2632E-04   -0.4720E-04   -0.3638E-04   -0.2070E-04   -0.1274E-04
  (  3,  8,  1) (  3,  8,  3) (  3,  7,  3) (  3,  8,  3) (  3,  7,  4)
    -0.5120E-05
  (  3,  8,  3)


 OUTPUT CONTROL FOR STRESS PERIOD     27   TIME STEP     5
    SAVE HEAD FOR ALL LAYERS

 HEAD WILL BE SAVED ON UNIT   21 AT END OF TIME STEP     5 IN STRESS PERIOD     27
 
 SOLVING FOR HEAD 
    32 ITERATIONS FOR TIME STEP   6 IN STRESS PERIOD   27

 MAXIMUM HEAD CHANGE FOR EACH ITERATION:

    HEAD CHANGE   HEAD CHANGE   HEAD CHANGE   HEAD CHANGE   HEAD CHANGE
  LAYER,ROW,COL LAYER,ROW,COL LAYER,ROW,COL LAYER,ROW,COL LAYER,ROW,COL
 ----------------------------------------------------------------------
    -0.6588        0.6159        0.3832       -0.9764       -0.9658    
  (  2,  3,  6) (  2,  3,  6) (  3,  3,  3) (  3, 10,  2) (  3,  1,  1)
     0.4569        0.2711        0.7601E-01    0.2555E-01   -0.2523E-01
  (  3,  1, 10) (  3,  2,  2) (  2,  1,  9) (  2, 10,  1) (  2, 10, 10)
     0.2578E-01   -0.9974E-02   -0.8046E-02   -0.4088E-02   -0.2444E-02
  (  2,  7,  1) (  3,  2,  6) (  3,  2,  4) (  3,  2,  6) (  3,  2,  6)
    -0.2186E-02   -0.1644E-02   -0.1393E-02   -0.6720E-03   -0.4307E-03
  (  2,  7,  1) (  3,  2,  3) (  3,  2,  6) (  3,  2,  6) (  3,  2,  6)
    -0.3531E-03   -0.2884E-03   -0.2328E-03   -0.1197E-03   -0.7170E-04
  (  2,  8,  1) (  3,  2,  6) (  3,  3,  5) (  3,  2,  6) (  3,  3,  6)
    -0.3685E-04   -0.4819E-04   -0.4111E-04   -0.2034E-04   -0.1306E-04
  (  2,  8,  1) (  3,  3,  6) (  3,  3,  5) (  3,  3,  6) (  3,  3,  6)
    -0.1046E-04   -0.3356E-05
  (  2,  8,  1) (  3,  2,  6)


 OUTPUT CONTROL FOR STRESS PERIOD     27   TIME STEP     6
    PRINT BUDGET
    PRINT HEAD FOR ALL LAYERS
    SAVE HEAD FOR ALL LAYERS
    SAVE DRAWDOWN FOR ALL LAYERS
1
              HEAD IN LAYER   1 AT END OF TIME STEP   6 IN STRESS PERIOD   27
  ---------------------------------------------------------------------------

           1       2       3       4       5       6       7       8       9      10
 ...................................................................................
   1    19.97   19.62   18.95   18.53   18.32   18.32   18.52   18.94   19.62   19.97
   2    18.97   18.46   18.03   17.73   17.57   17.57   17.72   18.02   18.45   18.96
   3    17.53   17.03   16.66   16.41   16.28   16.28   16.40   16.65   17.02   17.52
   4    15.58   15.15   14.84   14.65   14.56   14.55   14.65   14.84   15.14   15.57
   5    12.82   12.73   12.63   12.54   12.50   12.50   12.54   12.62   12.72   12.81
   6    10.41   10.38   10.34   10.31   10.29   10.29   10.30   10.34   10.38   10.40
   7     8.11    8.09    8.06    8.02    8.00    8.00    8.02    8.05    8.08    8.10
   8     5.89    5.85    5.77    5.68    5.64    5.64    5.68    5.76    5.84    5.89
   9     3.88    3.73    3.48    3.19    3.07    3.07    3.19    3.48    3.73    3.87
  10     2.43    2.08    1.31    0.00    0.00    0.00    0.00    1.31    2.08    2.43
1
              HEAD IN LAYER   2 AT END OF TIME STEP   6 IN STRESS PERIOD   27
  ---------------------------------------------------------------------------

           1       2       3       4       5       6       7       8       9      10
 ...................................................................................
   1    -4.67   -4.66   -4.66   -4.67   -4.69   -4.71   -4.72   -4.74   -4.77   -4.79
   2    -4.74   -3.89   -4.20   -4.69   -5.18   -5.55   -5.52   -5.20   -4.83   -4.93
   3    -4.85   -4.40   -4.90   -5.72   -6.82   -7.48   -7.27   -6.68   -5.77   -5.09
   4    -4.98   -4.67   -5.07   -5.67   -6.41   -7.03   -7.01   -6.42   -5.79   -5.23
   5    -5.14   -4.86   -5.03   -5.31   -5.60   -5.82   -5.85   -5.72   -5.54   -5.37
   6    -5.30   -5.02   -5.07   -5.19   -5.30   -5.39   -5.43   -5.42   -5.40   -5.51
   7    -5.48   -5.28   -5.30   -5.36   -5.42   -5.46   -5.48   -5.48   -5.50   -5.65
   8    -5.67   -5.70   -5.75   -5.82   -5.87   -5.89   -5.88   -5.86   -5.82   -5.79
   9    -5.85   -6.24   -6.41   -6.56   -6.63   -6.64   -6.59   -6.47   -6.31   -5.94
  10    -6.03   -6.07   -6.10   -6.13   -6.15   -6.15   -6.15   -6.13   -6.10   -6.07
1
              HEAD IN LAYER   3 AT END OF TIME STEP   6 IN STRESS PERIOD   27
  ---------------------------------------------------------------------------

           1       2       3       4       5       6       7       8       9      10
 ...................................................................................
   1   -25.60  -25.77  -26.09  -26.51  -26.95  -27.30  -27.47  -27.46  -27.39  -27.33
   2   -25.61  -25.87  -26.39  -27.12  -28.00  -28.78  -28.86  -28.46  -28.05  -27.82
   3   -25.27  -25.66  -26.50  -27.90  -30.14  -33.75  -32.90  -30.20  -28.73  -28.08
   4   -24.05  -24.37  -25.02  -26.04  -27.48  -29.35  -29.09  -27.74  -26.87  -26.44
   5   -22.21  -22.38  -22.72  -23.20  -23.73  -24.19  -24.28  -24.10  -23.88  -23.75
   6   -20.28  -20.36  -20.52  -20.72  -20.94  -21.11  -21.20  -21.21  -21.19  -21.17
   7   -18.58  -18.62  -18.69  -18.78  -18.88  -18.96  -19.02  -19.06  -19.07  -19.08
   8   -17.26  -17.28  -17.32  -17.36  -17.41  -17.45  -17.49  -17.52  -17.53  -17.54
   9   -16.38  -16.39  -16.41  -16.43  -16.46  -16.48  -16.51  -16.52  -16.54  -16.54
  10   -15.93  -15.94  -15.95  -15.97  -15.99  -16.01  -16.02  -16.04  -16.04  -16.05

 HEAD WILL BE SAVED ON UNIT   21 AT END OF TIME STEP     6 IN STRESS PERIOD     27

 DRAWDOWN WILL BE SAVED ON UNIT   22 AT END OF TIME STEP     6 IN STRESS PERIOD     27



  -------------------------------------------------------------------------------------
  VOLUMETRIC BUDGET FOR ENTIRE MODEL AT END OF TIME STEP    6 IN STRESS PERIOD     27
  -------------------------------------------------------------------------------------

     CUMULATIVE VOLUMES      L**3       RATES FOR THIS TIME STEP      L**3/T
     ------------------                 ------------------------

           IN:                                      IN:
           ---                                      ---
             STORAGE =    40516183.6132               STORAGE =        3190.3097
       CONSTANT HEAD =      640287.1371         CONSTANT HEAD =         147.4353
               WELLS =   284964000.0000                 WELLS =       30000.0000
    INST. IB STORAGE =    58116322.7038      INST. IB STORAGE =        4991.6497
    DELAY IB STORAGE =   148015870.1796      DELAY IB STORAGE =       14974.3193

            TOTAL IN =   532252663.6338              TOTAL IN =       53303.7140

          OUT:                                     OUT:
          ----                                     ----
             STORAGE =           0.0000               STORAGE =           0.0000
       CONSTANT HEAD =   247318816.8314         CONSTANT HEAD =       23303.7343
               WELLS =   284934000.0000                 WELLS =       30000.0000
    INST. IB STORAGE =       2.6922E-07      INST. IB STORAGE =       2.0993E-11
    DELAY IB STORAGE =       1.0806E-10      DELAY IB STORAGE =           0.0000

           TOTAL OUT =   532252816.8314             TOTAL OUT =       53303.7343

            IN - OUT =        -153.1977              IN - OUT =      -2.0230E-02

 PERCENT DISCREPANCY =          -0.00     PERCENT DISCREPANCY =          -0.00


          TIME SUMMARY AT END OF TIME STEP     6 IN STRESS PERIOD     27
                    SECONDS     MINUTES      HOURS       DAYS        YEARS
                    -----------------------------------------------------------
   TIME STEP LENGTH 9.18681E+06 1.53113E+05  2551.9      106.33     0.29111    
 STRESS PERIOD TIME 3.15619E+07 5.26032E+05  8767.2      365.30      1.0001    
         TOTAL TIME 8.20696E+08 1.36783E+07 2.27971E+05  9498.8      26.006    
 

                               VOLUMETRIC BUDGET FOR SYSTEMS OF DELAY INTERBEDS
                                          AT END OF TIME STEP  6 IN STRESS PERIOD 27

          |   C U M U L A T I V E   V O L U M E S   L**3           | R A T E S   F O R  T H I S  T I M E  S T E P   L**3/T  |
   SYSTEM |    CHANGE IN     BOUNDARY                    PERCENT   |    CHANGE IN     BOUNDARY                    PERCENT   |
   NUMBER |     STORAGE        FLOW           SUM      DISCREPANCY |     STORAGE        FLOW           SUM      DISCREPANCY |
  --------|--------------------------------------------------------|--------------------------------------------------------|
      1    0.10349E+06   -0.10349E+06   -0.14552E-10   -0.14061E-13     8.2965        -8.2965       -0.17764E-14   -0.21411E-13
      2    0.14791E+09   -0.14791E+09    0.59605E-07    0.40297E-13     14966.        -14966.       -0.90949E-11   -0.60771E-13
  --------|--------------------------------------------------------|--------------------------------------------------------|
 TOTALS:    0.14802E+09   -0.14802E+09    0.59605E-07    0.40269E-13     14974.        -14974.       -0.90949E-11   -0.60737E-13
1
                            STRESS PERIOD NO.     28, LENGTH =   365.3000    
                            -----------------------------------------------

                              NUMBER OF TIME STEPS =     6

                               MULTIPLIER FOR DELT =     1.300

                            INITIAL TIME STEP SIZE =   28.63744    

REUSING NON-PARAMETER WELLS FROM LAST STRESS PERIOD

14 WELLS
 
 SOLVING FOR HEAD 

    43 ITERATIONS FOR TIME STEP   1 IN STRESS PERIOD   28

 MAXIMUM HEAD CHANGE FOR EACH ITERATION:

    HEAD CHANGE   HEAD CHANGE   HEAD CHANGE   HEAD CHANGE   HEAD CHANGE
  LAYER,ROW,COL LAYER,ROW,COL LAYER,ROW,COL LAYER,ROW,COL LAYER,ROW,COL
 ----------------------------------------------------------------------
      2.157         2.424         1.954        -1.324        -2.451    
  (  3,  1,  1) (  3,  2,  8) (  3,  3,  3) (  3,  1, 10) (  3,  1,  1)
    -0.2122       -0.5477        -1.250       -0.9982        0.7832    
  (  3,  1, 10) (  3,  1,  1) (  3,  1, 10) (  3,  4,  1) (  3, 10, 10)
    -0.5068E-01    0.6610E-02   -0.4509E-02   -0.2922E-02   -0.1765E-02
  (  2,  7,  1) (  2,  2,  1) (  3,  1,  1) (  3,  3, 10) (  3,  1,  1)
    -0.1463E-02    0.4860E-03   -0.7483E-03    0.1305E-02    0.5966E-03
  (  3,  1,  1) (  3,  9,  1) (  3,  9, 10) (  3,  7,  1) (  3,  3,  8)
     0.1218E-02    0.1080E-02    0.1629E-02    0.1629E-02    0.1319E-02
  (  3, 10,  4) (  3,  3,  5) (  3, 10, 10) (  3,  1,  7) (  3,  3,  8)
     0.8658E-03    0.8882E-03    0.6230E-03    0.4319E-03    0.3242E-03
  (  3,  1, 10) (  3,  3,  6) (  3,  3,  6) (  3,  3,  8) (  3,  3,  6)
     0.1988E-03    0.2172E-03    0.1501E-03    0.1064E-03    0.7847E-04
  (  3,  3,  9) (  3,  3,  6) (  3,  3,  6) (  3,  3,  6) (  3,  3,  8)
     0.4997E-04    0.5258E-04    0.3709E-04    0.2579E-04    0.1943E-04
  (  3,  1, 10) (  3,  3,  8) (  3,  3,  6) (  3,  3,  8) (  3,  3,  6)
     0.1204E-04    0.1081E-04    0.5769E-05
  (  3,  3,  9) (  3,  3,  8) (  3,  1,  9)


 OUTPUT CONTROL FOR STRESS PERIOD     28   TIME STEP     1
    SAVE HEAD FOR ALL LAYERS

 HEAD WILL BE SAVED ON UNIT   21 AT END OF TIME STEP     1 IN STRESS PERIOD     28
 
 SOLVING FOR HEAD 
    42 ITERATIONS FOR TIME STEP   2 IN STRESS PERIOD   28

 MAXIMUM HEAD CHANGE FOR EACH ITERATION:

    HEAD CHANGE   HEAD CHANGE   HEAD CHANGE   HEAD CHANGE   HEAD CHANGE
  LAYER,ROW,COL LAYER,ROW,COL LAYER,ROW,COL LAYER,ROW,COL LAYER,ROW,COL
 ----------------------------------------------------------------------
      1.742         2.050         1.914        -1.086        -2.621    
  (  3,  1,  1) (  3,  2,  8) (  3,  3,  3) (  3, 10, 10) (  3,  1,  1)
     0.2586       -0.4447        -1.116        0.2135       -0.3618E-01
  (  2,  3,  6) (  3,  1,  1) (  3,  1, 10) (  3, 10,  1) (  2,  1,  1)
    -0.4874E-01   -0.1152E-01   -0.1768E-02   -0.1068E-02   -0.1382E-02
  (  2,  7,  1) (  2,  1,  2) (  3, 10,  3) (  3,  3,  1) (  3,  1,  8)
     0.1277E-02    0.5429E-03    0.2064E-02    0.1293E-02    0.2333E-02
  (  3, 10,  1) (  3,  8,  7) (  3,  1, 10) (  3,  1,  1) (  3,  1, 10)
     0.1485E-02    0.2578E-02    0.2050E-02    0.1525E-02    0.1166E-02
  (  3,  1,  1) (  3, 10,  1) (  3,  1,  1) (  3,  1,  1) (  3,  1,  1)
     0.7320E-03    0.7654E-03    0.4961E-03    0.3721E-03    0.2652E-03
  (  3,  1,  1) (  3,  1,  1) (  3,  1,  1) (  3,  1,  1) (  3,  1,  1)
     0.1828E-03    0.1654E-03    0.1269E-03    0.8264E-04    0.6441E-04
  (  3,  1,  1) (  3,  1,  2) (  3,  1,  1) (  3,  1,  1) (  3,  1,  1)
     0.4105E-04    0.4178E-04    0.2704E-04    0.2075E-04    0.1458E-04
  (  3,  1,  1) (  3,  1,  1) (  3,  1,  1) (  3,  1,  1) (  3,  1,  1)
     0.1037E-04    0.4824E-05
  (  3,  1,  1) (  3,  1,  1)


 OUTPUT CONTROL FOR STRESS PERIOD     28   TIME STEP     2
    SAVE HEAD FOR ALL LAYERS

 HEAD WILL BE SAVED ON UNIT   21 AT END OF TIME STEP     2 IN STRESS PERIOD     28
 
 SOLVING FOR HEAD 
    39 ITERATIONS FOR TIME STEP   3 IN STRESS PERIOD   28

 MAXIMUM HEAD CHANGE FOR EACH ITERATION:

    HEAD CHANGE   HEAD CHANGE   HEAD CHANGE   HEAD CHANGE   HEAD CHANGE
  LAYER,ROW,COL LAYER,ROW,COL LAYER,ROW,COL LAYER,ROW,COL LAYER,ROW,COL
 ----------------------------------------------------------------------
      1.349         1.637         1.676       -0.9532        -2.676    
  (  3,  1,  1) (  3,  2,  8) (  3,  3,  3) (  3, 10, 10) (  3,  1,  1)
     0.4431       -0.3039       -0.8233        0.4969        0.3008E-01
  (  2,  3,  6) (  3,  1,  1) (  3,  1, 10) (  3, 10,  1) (  2, 10, 10)
    -0.3829E-01   -0.1257E-01   -0.4419E-02   -0.2466E-02   -0.9157E-03
  (  2,  6,  1) (  2,  1,  2) (  3,  1,  1) (  3,  1, 10) (  3,  1, 10)
    -0.6163E-03    0.1706E-02    0.1311E-02    0.2598E-02    0.2356E-02
  (  2,  7,  1) (  3, 10, 10) (  3,  3,  2) (  3,  9,  5) (  3,  1,  1)
     0.1604E-02    0.1905E-02    0.1300E-02    0.8153E-03    0.6020E-03
  (  3,  1,  1) (  3,  2,  2) (  3,  2,  2) (  3,  2,  2) (  3,  1,  2)
     0.3373E-03    0.4137E-03    0.2805E-03    0.1845E-03    0.1292E-03
  (  3,  1,  2) (  3,  2,  2) (  3,  2,  2) (  3,  1,  2) (  3,  1,  2)
     0.7686E-04    0.9133E-04    0.6304E-04    0.3963E-04    0.2980E-04
  (  3,  1,  2) (  3,  2,  2) (  3,  2,  2) (  3,  2,  2) (  3,  1,  2)
     0.1634E-04    0.1984E-04    0.1357E-04    0.8870E-05
  (  3,  1,  2) (  3,  2,  2) (  3,  2,  2) (  3,  1,  2)


 OUTPUT CONTROL FOR STRESS PERIOD     28   TIME STEP     3
    SAVE HEAD FOR ALL LAYERS

 HEAD WILL BE SAVED ON UNIT   21 AT END OF TIME STEP     3 IN STRESS PERIOD     28
 
 SOLVING FOR HEAD 
    35 ITERATIONS FOR TIME STEP   4 IN STRESS PERIOD   28

 MAXIMUM HEAD CHANGE FOR EACH ITERATION:

    HEAD CHANGE   HEAD CHANGE   HEAD CHANGE   HEAD CHANGE   HEAD CHANGE
  LAYER,ROW,COL LAYER,ROW,COL LAYER,ROW,COL LAYER,ROW,COL LAYER,ROW,COL
 ----------------------------------------------------------------------
     0.9913         1.223         1.305       -0.8884        -2.594    
  (  3,  1,  1) (  3,  1, 10) (  3,  3,  3) (  3, 10, 10) (  3,  1,  1)
     0.2889        0.8701E-01    0.1659E-01   -0.1348E-01   -0.1023E-01
  (  2,  4,  6) (  2, 10,  2) (  2,  1,  6) (  3,  1,  1) (  3,  4,  3)
     0.9484E-02   -0.6096E-02   -0.3285E-02   -0.1495E-02    0.1762E-02
  (  2,  6,  1) (  3,  3,  4) (  3,  5,  3) (  3,  2,  6) (  3,  1,  2)
     0.1572E-02    0.2941E-02    0.2361E-02    0.1510E-02    0.1069E-02
  (  3, 10,  6) (  3,  1,  1) (  3,  2,  1) (  3,  1,  1) (  3,  1,  1)
     0.5790E-03    0.7274E-03    0.5182E-03    0.3060E-03    0.2113E-03
  (  3,  1,  1) (  3,  2,  2) (  3,  1,  1) (  3,  1,  1) (  3,  1,  1)
     0.1372E-03    0.1488E-03    0.1014E-03    0.6225E-04    0.4470E-04
  (  2,  6,  1) (  3,  1,  1) (  3,  2,  1) (  3,  1,  1) (  3,  1,  1)
     0.2956E-04    0.2987E-04    0.2140E-04    0.1353E-04    0.8472E-05
  (  2,  7,  1) (  3,  2,  2) (  3,  1,  1) (  3, 10,  1) (  3,  1, 10)


 OUTPUT CONTROL FOR STRESS PERIOD     28   TIME STEP     4
    SAVE HEAD FOR ALL LAYERS

 HEAD WILL BE SAVED ON UNIT   21 AT END OF TIME STEP     4 IN STRESS PERIOD     28
 
 SOLVING FOR HEAD 
    31 ITERATIONS FOR TIME STEP   5 IN STRESS PERIOD   28

 MAXIMUM HEAD CHANGE FOR EACH ITERATION:

    HEAD CHANGE   HEAD CHANGE   HEAD CHANGE   HEAD CHANGE   HEAD CHANGE
  LAYER,ROW,COL LAYER,ROW,COL LAYER,ROW,COL LAYER,ROW,COL LAYER,ROW,COL
 ----------------------------------------------------------------------
     0.6775        0.8268        0.8669       -0.8732        -2.338    
  (  3,  1,  1) (  3,  1, 10) (  3,  3,  3) (  3, 10, 10) (  3,  1,  1)
     0.6906        0.3914        0.1760        0.5745E-01   -0.3483E-01
  (  3,  1, 10) (  3,  9,  3) (  2,  9,  5) (  2,  9,  7) (  2, 10, 10)
     0.7561E-01    0.1291E-01   -0.5714E-02   -0.2978E-02   -0.1961E-02
  (  2,  7,  1) (  2,  1,  2) (  3,  7,  4) (  3,  7,  2) (  3,  8,  3)
    -0.2244E-02   -0.1319E-02   -0.1036E-02   -0.5588E-03   -0.3580E-03
  (  2,  6,  1) (  3,  7,  3) (  3,  7,  3) (  3,  8,  4) (  3,  7,  3)
    -0.1469E-03   -0.2476E-03   -0.1952E-03   -0.1035E-03   -0.6998E-04
  (  3, 10,  7) (  3,  8,  3) (  3,  8,  4) (  3,  7,  3) (  3,  8,  4)
    -0.2660E-04   -0.4646E-04   -0.3639E-04   -0.2038E-04   -0.1279E-04
  (  3,  8,  1) (  3,  8,  4) (  3,  7,  3) (  3,  8,  5) (  3,  7,  3)
    -0.5153E-05
  (  3,  8,  1)


 OUTPUT CONTROL FOR STRESS PERIOD     28   TIME STEP     5
    SAVE HEAD FOR ALL LAYERS

 HEAD WILL BE SAVED ON UNIT   21 AT END OF TIME STEP     5 IN STRESS PERIOD     28
 
 SOLVING FOR HEAD 
    32 ITERATIONS FOR TIME STEP   6 IN STRESS PERIOD   28

 MAXIMUM HEAD CHANGE FOR EACH ITERATION:

    HEAD CHANGE   HEAD CHANGE   HEAD CHANGE   HEAD CHANGE   HEAD CHANGE
  LAYER,ROW,COL LAYER,ROW,COL LAYER,ROW,COL LAYER,ROW,COL LAYER,ROW,COL
 ----------------------------------------------------------------------
    -0.7572        0.7082        0.3786       -0.9770       -0.9482    
  (  2,  3,  6) (  2,  3,  6) (  3,  3,  3) (  3, 10,  2) (  3,  1,  1)
     0.4514        0.2671        0.7490E-01    0.2518E-01   -0.2502E-01
  (  3,  1, 10) (  3,  2,  2) (  2,  1,  9) (  2, 10,  1) (  2, 10, 10)
     0.2539E-01   -0.9781E-02   -0.7936E-02   -0.3993E-02   -0.2418E-02
  (  2,  7,  1) (  3,  2,  5) (  3,  2,  4) (  3,  2,  6) (  3,  2,  6)
    -0.2132E-02   -0.1619E-02   -0.1363E-02   -0.6659E-03   -0.4188E-03
  (  2,  7,  1) (  3,  2,  3) (  3,  2,  5) (  3,  2,  6) (  3,  2,  6)
    -0.3461E-03   -0.2825E-03   -0.2302E-03   -0.1168E-03   -0.7156E-04
  (  2,  8,  1) (  3,  2,  6) (  3,  3,  5) (  3,  3,  6) (  3,  2,  6)
    -0.3572E-04   -0.4750E-04   -0.4036E-04   -0.2025E-04   -0.1278E-04
  (  2,  8,  1) (  3,  3,  6) (  3,  3,  5) (  3,  3,  6) (  3,  3,  6)
    -0.1020E-04   -0.3167E-05
  (  2,  8,  1) (  3,  2,  6)


 OUTPUT CONTROL FOR STRESS PERIOD     28   TIME STEP     6
    PRINT BUDGET
    PRINT HEAD FOR ALL LAYERS
    SAVE HEAD FOR ALL LAYERS
    SAVE DRAWDOWN FOR ALL LAYERS
1
              HEAD IN LAYER   1 AT END OF TIME STEP   6 IN STRESS PERIOD   28
  ---------------------------------------------------------------------------

           1       2       3       4       5       6       7       8       9      10
 ...................................................................................
   1    19.89   19.54   18.87   18.44   18.24   18.24   18.44   18.86   19.53   19.89
   2    18.89   18.38   17.95   17.65   17.49   17.49   17.64   17.94   18.37   18.88
   3    17.45   16.95   16.58   16.33   16.20   16.20   16.32   16.57   16.94   17.44
   4    15.51   15.07   14.77   14.58   14.48   14.48   14.57   14.76   15.06   15.50
   5    12.75   12.66   12.56   12.48   12.43   12.43   12.47   12.55   12.65   12.74
   6    10.35   10.32   10.28   10.25   10.23   10.23   10.24   10.28   10.32   10.34
   7     8.06    8.04    8.00    7.97    7.95    7.95    7.97    8.00    8.03    8.05
   8     5.86    5.81    5.73    5.65    5.60    5.60    5.64    5.73    5.80    5.85
   9     3.85    3.71    3.45    3.17    3.05    3.05    3.17    3.45    3.70    3.85
  10     2.41    2.06    1.30    0.00    0.00    0.00    0.00    1.30    2.06    2.41
1
              HEAD IN LAYER   2 AT END OF TIME STEP   6 IN STRESS PERIOD   28
  ---------------------------------------------------------------------------

           1       2       3       4       5       6       7       8       9      10
 ...................................................................................
   1    -4.95   -4.95   -4.95   -4.96   -4.98   -4.99   -5.01   -5.03   -5.05   -5.08
   2    -5.02   -4.19   -4.50   -4.99   -5.49   -5.85   -5.82   -5.50   -5.14   -5.22
   3    -5.13   -4.70   -5.20   -6.01   -7.01   -7.65   -7.42   -6.97   -6.07   -5.37
   4    -5.26   -4.96   -5.36   -5.96   -6.69   -7.09   -7.05   -6.69   -6.08   -5.51
   5    -5.41   -5.14   -5.31   -5.59   -5.88   -6.10   -6.12   -6.00   -5.82   -5.64
   6    -5.58   -5.29   -5.34   -5.46   -5.58   -5.67   -5.70   -5.69   -5.68   -5.78
   7    -5.75   -5.54   -5.56   -5.62   -5.68   -5.72   -5.74   -5.75   -5.76   -5.91
   8    -5.93   -5.95   -6.01   -6.07   -6.12   -6.14   -6.14   -6.11   -6.07   -6.06
   9    -6.11   -6.48   -6.65   -6.80   -6.87   -6.88   -6.83   -6.71   -6.56   -6.20
  10    -6.29   -6.32   -6.36   -6.39   -6.40   -6.41   -6.40   -6.38   -6.36   -6.33
1
              HEAD IN LAYER   3 AT END OF TIME STEP   6 IN STRESS PERIOD   28
  ---------------------------------------------------------------------------

           1       2       3       4       5       6       7       8       9      10
 ...................................................................................
   1   -26.13  -26.30  -26.62  -27.04  -27.48  -27.83  -28.00  -27.99  -27.92  -27.86
   2   -26.14  -26.40  -26.91  -27.65  -28.52  -29.30  -29.39  -28.99  -28.58  -28.34
   3   -25.79  -26.18  -27.02  -28.42  -30.66  -34.27  -33.42  -30.72  -29.25  -28.60
   4   -24.56  -24.88  -25.53  -26.55  -27.99  -29.86  -29.60  -28.25  -27.38  -26.95
   5   -22.71  -22.88  -23.22  -23.70  -24.23  -24.69  -24.78  -24.60  -24.38  -24.25
   6   -20.76  -20.84  -21.00  -21.21  -21.42  -21.60  -21.69  -21.70  -21.68  -21.65
   7   -19.05  -19.09  -19.16  -19.26  -19.35  -19.44  -19.50  -19.53  -19.55  -19.55
   8   -17.73  -17.75  -17.78  -17.82  -17.87  -17.92  -17.96  -17.98  -18.00  -18.00
   9   -16.83  -16.84  -16.86  -16.89  -16.92  -16.94  -16.96  -16.98  -16.99  -17.00
  10   -16.38  -16.39  -16.40  -16.42  -16.44  -16.46  -16.48  -16.49  -16.50  -16.50

 HEAD WILL BE SAVED ON UNIT   21 AT END OF TIME STEP     6 IN STRESS PERIOD     28

 DRAWDOWN WILL BE SAVED ON UNIT   22 AT END OF TIME STEP     6 IN STRESS PERIOD     28



  -------------------------------------------------------------------------------------
  VOLUMETRIC BUDGET FOR ENTIRE MODEL AT END OF TIME STEP    6 IN STRESS PERIOD     28
  -------------------------------------------------------------------------------------

     CUMULATIVE VOLUMES      L**3       RATES FOR THIS TIME STEP      L**3/T
     ------------------                 ------------------------

           IN:                                      IN:
           ---                                      ---
             STORAGE =    41669028.3646               STORAGE =        3133.1458
       CONSTANT HEAD =      695486.8931         CONSTANT HEAD =         153.5623
               WELLS =   295923000.0000                 WELLS =       30000.0000
    INST. IB STORAGE =    59934682.7558      INST. IB STORAGE =        4968.1638
    DELAY IB STORAGE =   153463698.5059      DELAY IB STORAGE =       14872.8298

            TOTAL IN =   551685896.5193              TOTAL IN =       53127.7017

          OUT:                                     OUT:
          ----                                     ----
             STORAGE =           0.0000               STORAGE =           0.0000
       CONSTANT HEAD =   255793058.1402         CONSTANT HEAD =       23127.7208
               WELLS =   295893000.0000                 WELLS =       30000.0000
    INST. IB STORAGE =       2.8536E-07      INST. IB STORAGE =       2.0752E-11
    DELAY IB STORAGE =       1.0990E-10      DELAY IB STORAGE =           0.0000

           TOTAL OUT =   551686058.1402             TOTAL OUT =       53127.7208

            IN - OUT =        -161.6208              IN - OUT =      -1.9086E-02

 PERCENT DISCREPANCY =          -0.00     PERCENT DISCREPANCY =          -0.00


          TIME SUMMARY AT END OF TIME STEP     6 IN STRESS PERIOD     28
                    SECONDS     MINUTES      HOURS       DAYS        YEARS
                    -----------------------------------------------------------
   TIME STEP LENGTH 9.18681E+06 1.53113E+05  2551.9      106.33     0.29111    
 STRESS PERIOD TIME 3.15619E+07 5.26032E+05  8767.2      365.30      1.0001    
         TOTAL TIME 8.52258E+08 1.42043E+07 2.36738E+05  9864.1      27.006    
 

                               VOLUMETRIC BUDGET FOR SYSTEMS OF DELAY INTERBEDS
                                          AT END OF TIME STEP  6 IN STRESS PERIOD 28

          |   C U M U L A T I V E   V O L U M E S   L**3           | R A T E S   F O R  T H I S  T I M E  S T E P   L**3/T  |
   SYSTEM |    CHANGE IN     BOUNDARY                    PERCENT   |    CHANGE IN     BOUNDARY                    PERCENT   |
   NUMBER |     STORAGE        FLOW           SUM      DISCREPANCY |     STORAGE        FLOW           SUM      DISCREPANCY |
  --------|--------------------------------------------------------|--------------------------------------------------------|
      1    0.10653E+06   -0.10653E+06   -0.14552E-10   -0.13661E-13     8.1118        -8.1118       -0.17764E-14   -0.21898E-13
      2    0.15336E+09   -0.15336E+09    0.59605E-07    0.38867E-13     14865.        -14865.       -0.54570E-11   -0.36711E-13
  --------|--------------------------------------------------------|--------------------------------------------------------|
 TOTALS:    0.15346E+09   -0.15346E+09    0.59605E-07    0.38840E-13     14873.        -14873.       -0.54570E-11   -0.36691E-13
1
                            STRESS PERIOD NO.     29, LENGTH =   365.3000    
                            -----------------------------------------------

                              NUMBER OF TIME STEPS =     6

                               MULTIPLIER FOR DELT =     1.300

                            INITIAL TIME STEP SIZE =   28.63744    

REUSING NON-PARAMETER WELLS FROM LAST STRESS PERIOD

14 WELLS
 
 SOLVING FOR HEAD 

    43 ITERATIONS FOR TIME STEP   1 IN STRESS PERIOD   29

 MAXIMUM HEAD CHANGE FOR EACH ITERATION:

    HEAD CHANGE   HEAD CHANGE   HEAD CHANGE   HEAD CHANGE   HEAD CHANGE
  LAYER,ROW,COL LAYER,ROW,COL LAYER,ROW,COL LAYER,ROW,COL LAYER,ROW,COL
 ----------------------------------------------------------------------
      2.125         2.390         1.935        -1.304        -2.424    
  (  3,  1,  1) (  3,  2,  8) (  3,  3,  3) (  3, 10, 10) (  3,  1,  1)
    -0.2088       -0.5398        -1.233       -0.9889        0.7785    
  (  3,  1, 10) (  3,  1,  1) (  3,  1, 10) (  3,  4,  1) (  3, 10, 10)
     0.1422        0.6535E-02   -0.4443E-02   -0.2894E-02   -0.1729E-02
  (  2,  9,  7) (  2,  2,  1) (  3,  1,  1) (  3,  9, 10) (  3,  1,  1)
    -0.1447E-02    0.4692E-03   -0.7574E-03    0.1293E-02    0.6113E-03
  (  3,  1,  1) (  3,  9,  1) (  3,  9, 10) (  3,  7,  1) (  3,  3,  7)
     0.1329E-02    0.1051E-02    0.1575E-02    0.1601E-02    0.1308E-02
  (  3, 10, 10) (  3,  3,  6) (  3, 10, 10) (  3,  1,  7) (  3,  3,  7)
     0.8480E-03    0.8825E-03    0.6207E-03    0.4297E-03    0.3243E-03
  (  3,  1, 10) (  3,  3,  7) (  3,  3,  7) (  3,  3,  7) (  3,  3,  7)
     0.1968E-03    0.2169E-03    0.1498E-03    0.1067E-03    0.7831E-04
  (  3,  3,  7) (  3,  3,  7) (  3,  3,  7) (  3,  3,  7) (  3,  3,  7)
     0.4933E-04    0.5250E-04    0.3724E-04    0.2580E-04    0.1960E-04
  (  3,  3,  7) (  3,  3,  7) (  3,  3,  7) (  3,  3,  7) (  3,  3,  7)
     0.1202E-04    0.1029E-04    0.3657E-05
  (  3,  3,  7) (  3,  1,  8) (  3,  1,  9)


 OUTPUT CONTROL FOR STRESS PERIOD     29   TIME STEP     1
    SAVE HEAD FOR ALL LAYERS

 HEAD WILL BE SAVED ON UNIT   21 AT END OF TIME STEP     1 IN STRESS PERIOD     29
 
 SOLVING FOR HEAD 
    42 ITERATIONS FOR TIME STEP   2 IN STRESS PERIOD   29

 MAXIMUM HEAD CHANGE FOR EACH ITERATION:

    HEAD CHANGE   HEAD CHANGE   HEAD CHANGE   HEAD CHANGE   HEAD CHANGE
  LAYER,ROW,COL LAYER,ROW,COL LAYER,ROW,COL LAYER,ROW,COL LAYER,ROW,COL
 ----------------------------------------------------------------------
      1.716         2.021         1.896        -1.091        -2.594    
  (  3,  1,  1) (  3,  2,  8) (  3,  3,  3) (  3, 10, 10) (  3,  1,  1)
     0.3150       -0.4381        -1.101        0.2108        0.8009E-01
  (  2,  3,  6) (  3,  1,  1) (  3,  1, 10) (  3, 10,  1) (  2,  3,  5)
    -0.4816E-01   -0.1145E-01   -0.1801E-02   -0.1046E-02   -0.1361E-02
  (  2,  7,  1) (  2,  1,  2) (  3, 10,  3) (  3,  3,  1) (  3,  1,  8)
     0.1253E-02    0.5634E-03    0.2050E-02    0.1282E-02    0.2316E-02
  (  3, 10,  1) (  3,  8,  3) (  3,  1, 10) (  3,  1,  1) (  3,  1, 10)
     0.1470E-02    0.2598E-02    0.2026E-02    0.1500E-02    0.1146E-02
  (  3,  1,  1) (  3, 10,  1) (  3,  1,  1) (  3,  1,  1) (  3,  1,  1)
     0.7200E-03    0.7528E-03    0.4879E-03    0.3659E-03    0.2608E-03
  (  3,  1,  1) (  3,  1,  1) (  3,  1,  1) (  3,  1,  1) (  3,  1,  1)
     0.1797E-03    0.1625E-03    0.1248E-03    0.8126E-04    0.6331E-04
  (  3,  1,  1) (  3,  1,  2) (  3,  1,  1) (  3,  1,  1) (  3,  1,  1)
     0.4038E-04    0.4108E-04    0.2659E-04    0.2040E-04    0.1434E-04
  (  3,  1,  1) (  3,  1,  1) (  3,  1,  1) (  3,  1,  1) (  3,  1,  1)
     0.1019E-04    0.4748E-05
  (  3,  1,  1) (  3,  1,  1)


 OUTPUT CONTROL FOR STRESS PERIOD     29   TIME STEP     2
    SAVE HEAD FOR ALL LAYERS

 HEAD WILL BE SAVED ON UNIT   21 AT END OF TIME STEP     2 IN STRESS PERIOD     29
 
 SOLVING FOR HEAD 
    39 ITERATIONS FOR TIME STEP   3 IN STRESS PERIOD   29

 MAXIMUM HEAD CHANGE FOR EACH ITERATION:

    HEAD CHANGE   HEAD CHANGE   HEAD CHANGE   HEAD CHANGE   HEAD CHANGE
  LAYER,ROW,COL LAYER,ROW,COL LAYER,ROW,COL LAYER,ROW,COL LAYER,ROW,COL
 ----------------------------------------------------------------------
      1.328         1.613         1.660       -0.9575        -2.650    
  (  3,  1,  1) (  3,  2,  8) (  3,  3,  3) (  3, 10, 10) (  3,  1,  1)
     0.5095       -0.2989       -0.8115        0.4933        0.4543E-01
  (  2,  3,  6) (  3,  1,  1) (  3,  1, 10) (  3, 10,  1) (  2,  9,  5)
    -0.3873E-01   -0.1170E-01   -0.4336E-02   -0.2463E-02   -0.8831E-03
  (  2,  6,  1) (  2,  1,  2) (  3,  1,  1) (  3,  1, 10) (  3,  1, 10)
    -0.5289E-03    0.1693E-02    0.1360E-02    0.2580E-02    0.2356E-02
  (  2,  7,  1) (  3, 10, 10) (  3,  2,  1) (  3,  9,  5) (  3,  2,  1)
     0.1708E-02    0.1810E-02    0.1371E-02    0.8378E-03    0.6426E-03
  (  3,  1,  1) (  3,  2,  3) (  3,  1,  1) (  3,  1,  1) (  3,  1,  1)
     0.3754E-03    0.4268E-03    0.2703E-03    0.1997E-03    0.1359E-03
  (  3,  1,  1) (  3,  1,  1) (  3,  1,  1) (  3,  1,  1) (  3,  1,  1)
     0.9150E-04    0.8613E-04    0.6826E-04    0.4073E-04    0.3270E-04
  (  3,  1,  1) (  3,  1,  2) (  3,  1,  1) (  3,  1,  1) (  3,  1,  1)
     0.1921E-04    0.2105E-04    0.1316E-04    0.9935E-05
  (  3,  1,  1) (  3,  1,  1) (  3,  1,  1) (  3,  1,  1)


 OUTPUT CONTROL FOR STRESS PERIOD     29   TIME STEP     3
    SAVE HEAD FOR ALL LAYERS

 HEAD WILL BE SAVED ON UNIT   21 AT END OF TIME STEP     3 IN STRESS PERIOD     29
 
 SOLVING FOR HEAD 
    35 ITERATIONS FOR TIME STEP   4 IN STRESS PERIOD   29

 MAXIMUM HEAD CHANGE FOR EACH ITERATION:

    HEAD CHANGE   HEAD CHANGE   HEAD CHANGE   HEAD CHANGE   HEAD CHANGE
  LAYER,ROW,COL LAYER,ROW,COL LAYER,ROW,COL LAYER,ROW,COL LAYER,ROW,COL
 ----------------------------------------------------------------------
     0.9763         1.205         1.292       -0.8917        -2.569    
  (  3,  1,  1) (  3,  1, 10) (  3,  3,  3) (  3, 10, 10) (  3,  1,  1)
     0.4150        0.8689E-01    0.1689E-01   -0.1326E-01   -0.1011E-01
  (  2,  4,  6) (  2, 10,  2) (  2,  1,  6) (  3,  1,  1) (  3,  4,  3)
     0.9656E-02   -0.6003E-02   -0.3267E-02   -0.1473E-02    0.1744E-02
  (  2,  7,  1) (  3,  3,  4) (  3,  5,  3) (  3,  1,  7) (  3,  1,  2)
     0.1729E-02    0.2888E-02    0.2317E-02    0.1480E-02    0.1047E-02
  (  3, 10,  1) (  3,  1,  1) (  3,  2,  1) (  3,  1,  1) (  3,  1,  1)
     0.5670E-03    0.7134E-03    0.5079E-03    0.2998E-03    0.2071E-03
  (  3,  1,  1) (  3,  2,  2) (  3,  1,  1) (  3,  1,  1) (  3,  1,  1)
     0.1253E-03    0.1457E-03    0.9944E-04    0.6097E-04    0.4378E-04
  (  2,  6,  1) (  3,  1,  1) (  3,  2,  1) (  3,  1,  1) (  3,  1,  1)
     0.2839E-04    0.2929E-04    0.2097E-04    0.1260E-04    0.8279E-05
  (  2,  7,  1) (  3,  2,  2) (  3,  1,  1) (  3,  1,  1) (  3,  1, 10)


 OUTPUT CONTROL FOR STRESS PERIOD     29   TIME STEP     4
    SAVE HEAD FOR ALL LAYERS

 HEAD WILL BE SAVED ON UNIT   21 AT END OF TIME STEP     4 IN STRESS PERIOD     29
 
 SOLVING FOR HEAD 
    31 ITERATIONS FOR TIME STEP   5 IN STRESS PERIOD   29

 MAXIMUM HEAD CHANGE FOR EACH ITERATION:

    HEAD CHANGE   HEAD CHANGE   HEAD CHANGE   HEAD CHANGE   HEAD CHANGE
  LAYER,ROW,COL LAYER,ROW,COL LAYER,ROW,COL LAYER,ROW,COL LAYER,ROW,COL
 ----------------------------------------------------------------------
    -0.7120        0.8143        0.8579       -0.8755        -2.306    
  (  2,  3,  6) (  3,  1, 10) (  3,  3,  3) (  3, 10, 10) (  3,  1,  1)
     0.6830        0.3865        0.1314        0.7036E-01   -0.3084E-01
  (  3,  1, 10) (  3,  9,  3) (  2,  1,  7) (  2, 10,  4) (  2, 10,  9)
     0.7441E-01    0.1401E-01   -0.5634E-02   -0.2931E-02   -0.1928E-02
  (  2,  6,  1) (  2,  1,  2) (  3,  7,  4) (  3,  7,  2) (  3,  8,  3)
    -0.1889E-02   -0.1296E-02   -0.1019E-02   -0.5511E-03   -0.3533E-03
  (  2,  5,  1) (  3,  7,  3) (  3,  7,  3) (  3,  8,  4) (  3,  7,  3)
    -0.1440E-03   -0.2442E-03   -0.1927E-03   -0.1024E-03   -0.6959E-04
  (  3, 10, 10) (  3,  8,  3) (  3,  8,  4) (  3,  7,  3) (  3,  8,  4)
    -0.2624E-04   -0.4622E-04   -0.3605E-04   -0.2032E-04   -0.1273E-04
  (  3,  8,  3) (  3,  8,  3) (  3,  7,  3) (  3,  8,  4) (  3,  8,  3)
    -0.5179E-05
  (  3,  8,  3)


 OUTPUT CONTROL FOR STRESS PERIOD     29   TIME STEP     5
    SAVE HEAD FOR ALL LAYERS

 HEAD WILL BE SAVED ON UNIT   21 AT END OF TIME STEP     5 IN STRESS PERIOD     29
 
 SOLVING FOR HEAD 
    31 ITERATIONS FOR TIME STEP   6 IN STRESS PERIOD   29

 MAXIMUM HEAD CHANGE FOR EACH ITERATION:

    HEAD CHANGE   HEAD CHANGE   HEAD CHANGE   HEAD CHANGE   HEAD CHANGE
  LAYER,ROW,COL LAYER,ROW,COL LAYER,ROW,COL LAYER,ROW,COL LAYER,ROW,COL
 ----------------------------------------------------------------------
    -0.8377        0.7840        0.3751       -0.9764       -0.9345    
  (  2,  3,  6) (  2,  3,  6) (  3,  3,  3) (  3, 10,  2) (  3,  1,  1)
     0.4465        0.2639        0.7408E-01    0.2471E-01   -0.2536E-01
  (  3,  1, 10) (  3,  2,  2) (  2,  1,  9) (  2, 10,  1) (  2, 10, 10)
     0.2526E-01   -0.9654E-02   -0.7836E-02   -0.3949E-02   -0.2383E-02
  (  2,  7,  1) (  3,  2,  6) (  3,  2,  4) (  3,  2,  6) (  3,  2,  6)
    -0.2124E-02   -0.1597E-02   -0.1347E-02   -0.6569E-03   -0.4145E-03
  (  2,  7,  1) (  3,  2,  3) (  3,  2,  6) (  3,  2,  5) (  3,  2,  6)
    -0.3273E-03   -0.2791E-03   -0.2275E-03   -0.1156E-03   -0.7044E-04
  (  2,  8,  1) (  3,  2,  6) (  3,  3,  5) (  3,  3,  6) (  3,  2,  5)
    -0.3568E-04   -0.4689E-04   -0.4000E-04   -0.2001E-04   -0.1267E-04
  (  2,  8,  1) (  3,  3,  6) (  3,  3,  5) (  3,  3,  6) (  3,  3,  6)
    -0.9850E-05
  (  2,  8,  1)


 OUTPUT CONTROL FOR STRESS PERIOD     29   TIME STEP     6
    PRINT BUDGET
    PRINT HEAD FOR ALL LAYERS
    SAVE HEAD FOR ALL LAYERS
    SAVE DRAWDOWN FOR ALL LAYERS
1
              HEAD IN LAYER   1 AT END OF TIME STEP   6 IN STRESS PERIOD   29
  ---------------------------------------------------------------------------

           1       2       3       4       5       6       7       8       9      10
 ...................................................................................
   1    19.82   19.46   18.79   18.36   18.16   18.16   18.36   18.78   19.46   19.81
   2    18.81   18.30   17.87   17.57   17.41   17.41   17.56   17.86   18.29   18.80
   3    17.38   16.88   16.51   16.26   16.13   16.13   16.25   16.50   16.87   17.37
   4    15.44   15.00   14.70   14.51   14.41   14.41   14.50   14.69   14.99   15.43
   5    12.68   12.60   12.49   12.41   12.36   12.36   12.41   12.49   12.59   12.68
   6    10.29   10.26   10.22   10.19   10.17   10.17   10.19   10.22   10.26   10.28
   7     8.01    7.99    7.96    7.92    7.90    7.90    7.92    7.95    7.98    8.00
   8     5.82    5.77    5.69    5.61    5.56    5.56    5.61    5.69    5.77    5.81
   9     3.82    3.68    3.43    3.15    3.03    3.03    3.15    3.43    3.68    3.82
  10     2.39    2.05    1.29    0.00    0.00    0.00    0.00    1.29    2.05    2.39
1
              HEAD IN LAYER   2 AT END OF TIME STEP   6 IN STRESS PERIOD   29
  ---------------------------------------------------------------------------

           1       2       3       4       5       6       7       8       9      10
 ...................................................................................
   1    -5.24   -5.23   -5.24   -5.25   -5.26   -5.28   -5.30   -5.32   -5.34   -5.36
   2    -5.30   -4.48   -4.80   -5.29   -5.78   -6.14   -6.11   -5.79   -5.43   -5.50
   3    -5.41   -4.99   -5.50   -6.29   -7.06   -7.85   -7.58   -7.03   -6.34   -5.65
   4    -5.54   -5.24   -5.65   -6.25   -6.96   -7.19   -7.14   -6.96   -6.36   -5.79
   5    -5.68   -5.42   -5.59   -5.87   -6.16   -6.37   -6.40   -6.28   -6.10   -5.92
   6    -5.84   -5.56   -5.61   -5.73   -5.85   -5.94   -5.97   -5.96   -5.95   -6.05
   7    -6.01   -5.80   -5.82   -5.88   -5.94   -5.98   -6.01   -6.01   -6.02   -6.18
   8    -6.19   -6.20   -6.26   -6.32   -6.37   -6.39   -6.38   -6.36   -6.33   -6.32
   9    -6.37   -6.72   -6.89   -7.00   -7.01   -7.01   -7.00   -6.95   -6.80   -6.46
  10    -6.54   -6.58   -6.61   -6.64   -6.65   -6.66   -6.65   -6.64   -6.61   -6.59
1
              HEAD IN LAYER   3 AT END OF TIME STEP   6 IN STRESS PERIOD   29
  ---------------------------------------------------------------------------

           1       2       3       4       5       6       7       8       9      10
 ...................................................................................
   1   -26.65  -26.82  -27.14  -27.56  -28.00  -28.36  -28.52  -28.52  -28.45  -28.39
   2   -26.66  -26.92  -27.43  -28.17  -29.04  -29.82  -29.91  -29.51  -29.10  -28.86
   3   -26.31  -26.70  -27.53  -28.93  -31.17  -34.79  -33.94  -31.24  -29.77  -29.11
   4   -25.06  -25.38  -26.03  -27.06  -28.49  -30.37  -30.10  -28.76  -27.88  -27.45
   5   -23.20  -23.38  -23.72  -24.19  -24.73  -25.18  -25.27  -25.09  -24.88  -24.74
   6   -21.24  -21.33  -21.48  -21.69  -21.91  -22.08  -22.17  -22.18  -22.16  -22.14
   7   -19.52  -19.56  -19.64  -19.73  -19.83  -19.91  -19.97  -20.00  -20.02  -20.02
   8   -18.19  -18.21  -18.24  -18.29  -18.34  -18.38  -18.42  -18.44  -18.46  -18.47
   9   -17.29  -17.30  -17.32  -17.34  -17.37  -17.40  -17.42  -17.44  -17.45  -17.46
  10   -16.84  -16.84  -16.86  -16.87  -16.89  -16.91  -16.93  -16.94  -16.95  -16.96

 HEAD WILL BE SAVED ON UNIT   21 AT END OF TIME STEP     6 IN STRESS PERIOD     29

 DRAWDOWN WILL BE SAVED ON UNIT   22 AT END OF TIME STEP     6 IN STRESS PERIOD     29



  -------------------------------------------------------------------------------------
  VOLUMETRIC BUDGET FOR ENTIRE MODEL AT END OF TIME STEP    6 IN STRESS PERIOD     29
  -------------------------------------------------------------------------------------

     CUMULATIVE VOLUMES      L**3       RATES FOR THIS TIME STEP      L**3/T
     ------------------                 ------------------------

           IN:                                      IN:
           ---                                      ---
             STORAGE =    42800757.3369               STORAGE =        3074.5732
       CONSTANT HEAD =      752916.3404         CONSTANT HEAD =         159.6440
               WELLS =   306882000.0000                 WELLS =       30000.0000
    INST. IB STORAGE =    61745571.4764      INST. IB STORAGE =        4950.6938
    DELAY IB STORAGE =   158874265.8194      DELAY IB STORAGE =       14770.0843

            TOTAL IN =   571055510.9730              TOTAL IN =       52954.9953

          OUT:                                     OUT:
          ----                                     ----
             STORAGE =           0.0000               STORAGE =           0.0000
       CONSTANT HEAD =   264203686.2599         CONSTANT HEAD =       22955.0625
               WELLS =   306852000.0000                 WELLS =       30000.0000
    INST. IB STORAGE =       3.0170E-07      INST. IB STORAGE =       2.2652E-11
    DELAY IB STORAGE =       1.3490E-10      DELAY IB STORAGE =           0.0000

           TOTAL OUT =   571055686.2599             TOTAL OUT =       52955.0625

            IN - OUT =        -175.2869              IN - OUT =      -6.7223E-02

 PERCENT DISCREPANCY =          -0.00     PERCENT DISCREPANCY =          -0.00


          TIME SUMMARY AT END OF TIME STEP     6 IN STRESS PERIOD     29
                    SECONDS     MINUTES      HOURS       DAYS        YEARS
                    -----------------------------------------------------------
   TIME STEP LENGTH 9.18681E+06 1.53113E+05  2551.9      106.33     0.29111    
 STRESS PERIOD TIME 3.15619E+07 5.26032E+05  8767.2      365.30      1.0001    
         TOTAL TIME 8.83820E+08 1.47303E+07 2.45506E+05  10229.      28.007    
 

                               VOLUMETRIC BUDGET FOR SYSTEMS OF DELAY INTERBEDS
                                          AT END OF TIME STEP  6 IN STRESS PERIOD 29

          |   C U M U L A T I V E   V O L U M E S   L**3           | R A T E S   F O R  T H I S  T I M E  S T E P   L**3/T  |
   SYSTEM |    CHANGE IN     BOUNDARY                    PERCENT   |    CHANGE IN     BOUNDARY                    PERCENT   |
   NUMBER |     STORAGE        FLOW           SUM      DISCREPANCY |     STORAGE        FLOW           SUM      DISCREPANCY |
  --------|--------------------------------------------------------|--------------------------------------------------------|
      1    0.10951E+06   -0.10951E+06   -0.14552E-10   -0.13289E-13     7.9441        -7.9441        0.26645E-14    0.33541E-13
      2    0.15876E+09   -0.15876E+09    0.59605E-07    0.37543E-13     14762.        -14762.       -0.54570E-11   -0.36966E-13
  --------|--------------------------------------------------------|--------------------------------------------------------|
 TOTALS:    0.15887E+09   -0.15887E+09    0.59605E-07    0.37517E-13     14770.        -14770.       -0.54570E-11   -0.36946E-13
1
                            STRESS PERIOD NO.     30, LENGTH =   365.3000    
                            -----------------------------------------------

                              NUMBER OF TIME STEPS =     6

                               MULTIPLIER FOR DELT =     1.300

                            INITIAL TIME STEP SIZE =   28.63744    

REUSING NON-PARAMETER WELLS FROM LAST STRESS PERIOD

14 WELLS
 
 SOLVING FOR HEAD 

    43 ITERATIONS FOR TIME STEP   1 IN STRESS PERIOD   30

 MAXIMUM HEAD CHANGE FOR EACH ITERATION:

    HEAD CHANGE   HEAD CHANGE   HEAD CHANGE   HEAD CHANGE   HEAD CHANGE
  LAYER,ROW,COL LAYER,ROW,COL LAYER,ROW,COL LAYER,ROW,COL LAYER,ROW,COL
 ----------------------------------------------------------------------
      2.094         2.357         1.917        -1.307        -2.395    
  (  3,  1,  1) (  3,  2,  8) (  3,  3,  3) (  3, 10, 10) (  3,  1,  1)
    -0.2057       -0.5328        -1.218       -0.9833        0.7873    
  (  3,  1, 10) (  3,  1,  1) (  3,  1, 10) (  3,  4,  1) (  3, 10, 10)
     0.8711E-01    0.1632E-01   -0.4378E-02   -0.2913E-02   -0.1695E-02
  (  2,  9,  3) (  2,  4,  5) (  3,  1,  1) (  3,  9, 10) (  3,  1,  1)
    -0.1432E-02    0.4545E-03   -0.7709E-03    0.1271E-02    0.5900E-03
  (  3,  1,  1) (  3,  9,  1) (  3,  9, 10) (  3,  7,  1) (  3,  2,  7)
     0.1531E-02    0.1031E-02    0.1576E-02    0.1559E-02    0.1278E-02
  (  3, 10, 10) (  3,  2,  7) (  3, 10, 10) (  3,  1,  1) (  3,  2,  8)
     0.8383E-03    0.8686E-03    0.6038E-03    0.4210E-03    0.3154E-03
  (  3,  1, 10) (  3,  2,  7) (  3,  2,  7) (  3,  2,  7) (  3,  2,  8)
     0.1916E-03    0.2133E-03    0.1459E-03    0.1033E-03    0.7642E-04
  (  3,  1,  1) (  3,  2,  7) (  3,  2,  7) (  3,  2,  8) (  3,  2,  7)
     0.4831E-04    0.5139E-04    0.3594E-04    0.2512E-04    0.1884E-04
  (  3,  1, 10) (  3,  2,  7) (  3,  3,  7) (  3,  3,  8) (  3,  3,  7)
     0.1163E-04    0.1029E-04    0.3499E-05
  (  3,  3,  8) (  3,  1,  8) (  3,  2,  8)


 OUTPUT CONTROL FOR STRESS PERIOD     30   TIME STEP     1
    SAVE HEAD FOR ALL LAYERS

 HEAD WILL BE SAVED ON UNIT   21 AT END OF TIME STEP     1 IN STRESS PERIOD     30
 
 SOLVING FOR HEAD 
    42 ITERATIONS FOR TIME STEP   2 IN STRESS PERIOD   30

 MAXIMUM HEAD CHANGE FOR EACH ITERATION:

    HEAD CHANGE   HEAD CHANGE   HEAD CHANGE   HEAD CHANGE   HEAD CHANGE
  LAYER,ROW,COL LAYER,ROW,COL LAYER,ROW,COL LAYER,ROW,COL LAYER,ROW,COL
 ----------------------------------------------------------------------
      1.691         1.993         1.878        -1.094        -2.566    
  (  3,  1,  1) (  3,  2,  8) (  3,  3,  3) (  3, 10, 10) (  3,  1,  1)
     0.3156       -0.4318        -1.088        0.2080       -0.3791E-01
  (  2,  3,  6) (  3,  1,  1) (  3,  1, 10) (  3, 10,  1) (  2,  1,  1)
    -0.4740E-01   -0.1131E-01   -0.1824E-02   -0.1025E-02   -0.1338E-02
  (  2,  7,  1) (  2,  1,  2) (  3, 10,  3) (  3,  3,  1) (  3,  1,  8)
     0.1242E-02    0.3799E-03    0.2010E-02    0.1268E-02    0.2268E-02
  (  3, 10,  1) (  3,  9,  2) (  3,  6,  6) (  3,  1,  1) (  3,  1, 10)
     0.1451E-02    0.2588E-02    0.2001E-02    0.1477E-02    0.1128E-02
  (  3,  1,  1) (  3, 10,  1) (  3,  1,  1) (  3,  1,  1) (  3,  1,  1)
     0.7086E-03    0.7412E-03    0.4802E-03    0.3603E-03    0.2566E-03
  (  3,  1,  1) (  3,  1,  1) (  3,  1,  1) (  3,  1,  1) (  3,  1,  1)
     0.1769E-03    0.1600E-03    0.1229E-03    0.7996E-04    0.6234E-04
  (  3,  1,  1) (  3,  1,  2) (  3,  1,  1) (  3,  1,  1) (  3,  1,  1)
     0.3973E-04    0.4044E-04    0.2616E-04    0.2009E-04    0.1411E-04
  (  3,  1,  1) (  3,  1,  1) (  3,  1,  1) (  3,  1,  1) (  3,  1,  1)
     0.1003E-04    0.4676E-05
  (  3,  1,  1) (  3,  1,  1)


 OUTPUT CONTROL FOR STRESS PERIOD     30   TIME STEP     2
    SAVE HEAD FOR ALL LAYERS

 HEAD WILL BE SAVED ON UNIT   21 AT END OF TIME STEP     2 IN STRESS PERIOD     30
 
 SOLVING FOR HEAD 
    39 ITERATIONS FOR TIME STEP   3 IN STRESS PERIOD   30

 MAXIMUM HEAD CHANGE FOR EACH ITERATION:

    HEAD CHANGE   HEAD CHANGE   HEAD CHANGE   HEAD CHANGE   HEAD CHANGE
  LAYER,ROW,COL LAYER,ROW,COL LAYER,ROW,COL LAYER,ROW,COL LAYER,ROW,COL
 ----------------------------------------------------------------------
      1.309         1.591         1.645       -0.9606        -2.624    
  (  3,  1,  1) (  3,  2,  8) (  3,  3,  3) (  3, 10, 10) (  3,  1,  1)
     0.5650       -0.2940       -0.7998        0.4878        0.3885E-01
  (  2,  3,  6) (  3,  1,  1) (  3,  1, 10) (  3, 10,  1) (  2, 10, 10)
    -0.3755E-01   -0.1242E-01   -0.4256E-02   -0.2457E-02   -0.8548E-03
  (  2,  6,  1) (  2,  1,  2) (  3,  1,  1) (  3,  1, 10) (  3,  1, 10)
    -0.7503E-03    0.1611E-02    0.1363E-02    0.2554E-02    0.2336E-02
  (  2,  7,  1) (  3, 10,  4) (  3,  2,  1) (  3,  9,  2) (  3,  1,  1)
     0.1393E-02    0.1628E-02    0.1109E-02    0.6996E-03    0.5002E-03
  (  3,  1,  1) (  3,  2,  2) (  3,  1,  1) (  3,  1,  1) (  3,  1,  1)
     0.2930E-03    0.3472E-03    0.2345E-03    0.1517E-03    0.1101E-03
  (  3,  1, 10) (  3,  2,  2) (  3,  2,  3) (  3,  1,  1) (  3,  1,  1)
     0.6520E-04    0.7552E-04    0.5176E-04    0.3278E-04    0.2338E-04
  (  3,  1,  1) (  3,  2,  2) (  3,  1,  1) (  3,  1,  1) (  3,  1,  1)
     0.1358E-04    0.1599E-04    0.1048E-04    0.6230E-05
  (  3,  1,  1) (  3,  1,  1) (  3,  1,  4) (  3,  1,  1)


 OUTPUT CONTROL FOR STRESS PERIOD     30   TIME STEP     3
    SAVE HEAD FOR ALL LAYERS

 HEAD WILL BE SAVED ON UNIT   21 AT END OF TIME STEP     3 IN STRESS PERIOD     30
 
 SOLVING FOR HEAD 
    35 ITERATIONS FOR TIME STEP   4 IN STRESS PERIOD   30

 MAXIMUM HEAD CHANGE FOR EACH ITERATION:

    HEAD CHANGE   HEAD CHANGE   HEAD CHANGE   HEAD CHANGE   HEAD CHANGE
  LAYER,ROW,COL LAYER,ROW,COL LAYER,ROW,COL LAYER,ROW,COL LAYER,ROW,COL
 ----------------------------------------------------------------------
     0.9619         1.188         1.279       -0.8949        -2.539    
  (  3,  1,  1) (  3,  1, 10) (  3,  3,  3) (  3, 10, 10) (  3,  1,  1)
     0.5559        0.8753E-01    0.1700E-01   -0.1305E-01   -0.9987E-02
  (  2,  4,  7) (  2, 10,  2) (  2,  1,  6) (  3,  1,  1) (  3,  4,  3)
     0.9734E-02   -0.5911E-02   -0.3249E-02   -0.1451E-02    0.1723E-02
  (  2,  6,  1) (  3,  3,  4) (  3,  5,  3) (  3,  1,  7) (  3,  1,  3)
     0.1556E-02    0.2846E-02    0.2278E-02    0.1455E-02    0.1029E-02
  (  3, 10,  8) (  3,  1,  1) (  3,  2,  1) (  3,  1,  1) (  3,  1,  1)
     0.5574E-03    0.7008E-03    0.4992E-03    0.2946E-03    0.2034E-03
  (  3,  1,  1) (  3,  2,  2) (  3,  1,  1) (  3,  1,  1) (  3,  1,  1)
     0.1349E-03    0.1432E-03    0.9768E-04    0.5997E-04    0.4300E-04
  (  2,  6,  1) (  3,  1,  1) (  3,  2,  1) (  3,  1,  1) (  3,  1,  1)
     0.2743E-04    0.2877E-04    0.2062E-04    0.1280E-04    0.8030E-05
  (  2,  7,  1) (  3,  2,  2) (  3,  1,  1) (  3, 10,  2) (  3,  1, 10)


 OUTPUT CONTROL FOR STRESS PERIOD     30   TIME STEP     4
    SAVE HEAD FOR ALL LAYERS

 HEAD WILL BE SAVED ON UNIT   21 AT END OF TIME STEP     4 IN STRESS PERIOD     30
 
 SOLVING FOR HEAD 
    31 ITERATIONS FOR TIME STEP   5 IN STRESS PERIOD   30

 MAXIMUM HEAD CHANGE FOR EACH ITERATION:

    HEAD CHANGE   HEAD CHANGE   HEAD CHANGE   HEAD CHANGE   HEAD CHANGE
  LAYER,ROW,COL LAYER,ROW,COL LAYER,ROW,COL LAYER,ROW,COL LAYER,ROW,COL
 ----------------------------------------------------------------------
    -0.7784        0.8022        0.8492       -0.8755        -2.284    
  (  2,  3,  6) (  3,  1, 10) (  3,  3,  3) (  3, 10, 10) (  3,  1,  1)
     0.6796        0.3829        0.1269        0.1313       -0.6315E-01
  (  3,  1, 10) (  3,  9,  3) (  2,  1,  9) (  2, 10,  3) (  2, 10, 10)
     0.9550E-01    0.1609E-01   -0.5560E-02   -0.2893E-02   -0.2284E-02
  (  2,  7,  1) (  2,  1,  2) (  3,  7,  4) (  3,  7,  2) (  2, 10,  3)
    -0.2159E-02   -0.1284E-02   -0.1006E-02   -0.5443E-03   -0.3483E-03
  (  2,  6,  1) (  3,  7,  2) (  3,  7,  3) (  3,  7,  3) (  3,  7,  3)
    -0.1480E-03   -0.2404E-03   -0.1905E-03   -0.1009E-03   -0.6862E-04
  (  3, 10, 10) (  3,  8,  3) (  3,  7,  3) (  3,  7,  3) (  3,  8,  4)
    -0.2634E-04   -0.4545E-04   -0.3557E-04   -0.2005E-04   -0.1248E-04
  (  3,  3,  1) (  3,  8,  3) (  3,  7,  3) (  3,  8,  4) (  3,  7,  3)
    -0.5075E-05
  (  3,  8,  3)


 OUTPUT CONTROL FOR STRESS PERIOD     30   TIME STEP     5
    SAVE HEAD FOR ALL LAYERS

 HEAD WILL BE SAVED ON UNIT   21 AT END OF TIME STEP     5 IN STRESS PERIOD     30
 
 SOLVING FOR HEAD 
    31 ITERATIONS FOR TIME STEP   6 IN STRESS PERIOD   30

 MAXIMUM HEAD CHANGE FOR EACH ITERATION:

    HEAD CHANGE   HEAD CHANGE   HEAD CHANGE   HEAD CHANGE   HEAD CHANGE
  LAYER,ROW,COL LAYER,ROW,COL LAYER,ROW,COL LAYER,ROW,COL LAYER,ROW,COL
 ----------------------------------------------------------------------
    -0.9062        0.8489        0.3705       -0.9764       -0.9141    
  (  2,  3,  6) (  2,  3,  6) (  3,  3,  3) (  3, 10,  2) (  3,  1,  1)
     0.4387        0.2585        0.7243E-01    0.2417E-01   -0.2503E-01
  (  3,  1, 10) (  3,  2,  2) (  2,  1,  9) (  2, 10,  1) (  2, 10, 10)
     0.2497E-01   -0.9487E-02   -0.7699E-02   -0.3881E-02   -0.2340E-02
  (  2,  7,  1) (  3,  2,  6) (  3,  2,  4) (  3,  2,  6) (  3,  2,  6)
    -0.2107E-02   -0.1568E-02   -0.1324E-02   -0.6449E-03   -0.4071E-03
  (  2,  7,  1) (  3,  2,  3) (  3,  2,  6) (  3,  2,  5) (  3,  2,  6)
    -0.3144E-03   -0.2740E-03   -0.2232E-03   -0.1135E-03   -0.6908E-04
  (  2,  8,  1) (  3,  2,  6) (  3,  3,  5) (  3,  3,  6) (  3,  2,  5)
    -0.3586E-04   -0.4598E-04   -0.3924E-04   -0.1959E-04   -0.1241E-04
  (  2,  8,  1) (  3,  3,  6) (  3,  3,  5) (  3,  3,  6) (  3,  3,  6)
    -0.9550E-05
  (  2,  8,  1)


 OUTPUT CONTROL FOR STRESS PERIOD     30   TIME STEP     6
    PRINT BUDGET
    PRINT HEAD FOR ALL LAYERS
    SAVE HEAD FOR ALL LAYERS
    SAVE DRAWDOWN FOR ALL LAYERS
1
              HEAD IN LAYER   1 AT END OF TIME STEP   6 IN STRESS PERIOD   30
  ---------------------------------------------------------------------------

           1       2       3       4       5       6       7       8       9      10
 ...................................................................................
   1    19.74   19.38   18.71   18.29   18.08   18.08   18.28   18.71   19.38   19.73
   2    18.73   18.22   17.79   17.49   17.34   17.34   17.49   17.79   18.21   18.72
   3    17.30   16.80   16.43   16.18   16.05   16.05   16.17   16.42   16.79   17.29
   4    15.37   14.93   14.63   14.44   14.34   14.34   14.43   14.62   14.92   15.36
   5    12.62   12.53   12.43   12.34   12.30   12.30   12.34   12.42   12.52   12.61
   6    10.23   10.21   10.17   10.13   10.11   10.11   10.13   10.16   10.20   10.23
   7     7.96    7.94    7.91    7.87    7.85    7.85    7.87    7.90    7.94    7.96
   8     5.78    5.73    5.65    5.57    5.53    5.52    5.57    5.65    5.73    5.77
   9     3.79    3.65    3.41    3.13    3.01    3.01    3.13    3.40    3.65    3.79
  10     2.38    2.03    1.28    0.00    0.00    0.00    0.00    1.28    2.03    2.38
1
              HEAD IN LAYER   2 AT END OF TIME STEP   6 IN STRESS PERIOD   30
  ---------------------------------------------------------------------------

           1       2       3       4       5       6       7       8       9      10
 ...................................................................................
   1    -5.52   -5.51   -5.52   -5.53   -5.54   -5.56   -5.58   -5.60   -5.62   -5.64
   2    -5.58   -4.78   -5.09   -5.58   -6.07   -6.44   -6.41   -6.09   -5.72   -5.78
   3    -5.68   -5.28   -5.79   -6.56   -7.14   -8.05   -7.77   -7.09   -6.62   -5.92
   4    -5.81   -5.53   -5.94   -6.52   -7.02   -7.32   -7.25   -7.02   -6.63   -6.06
   5    -5.95   -5.70   -5.87   -6.15   -6.43   -6.65   -6.68   -6.55   -6.38   -6.19
   6    -6.11   -5.83   -5.88   -6.00   -6.12   -6.21   -6.24   -6.23   -6.22   -6.31
   7    -6.28   -6.06   -6.08   -6.14   -6.20   -6.24   -6.26   -6.27   -6.28   -6.44
   8    -6.45   -6.45   -6.50   -6.56   -6.61   -6.63   -6.63   -6.61   -6.58   -6.58
   9    -6.63   -6.96   -7.01   -7.03   -7.05   -7.05   -7.04   -7.02   -7.00   -6.71
  10    -6.79   -6.83   -6.86   -6.89   -6.90   -6.91   -6.90   -6.89   -6.87   -6.84
1
              HEAD IN LAYER   3 AT END OF TIME STEP   6 IN STRESS PERIOD   30
  ---------------------------------------------------------------------------

           1       2       3       4       5       6       7       8       9      10
 ...................................................................................
   1   -27.17  -27.34  -27.66  -28.08  -28.52  -28.87  -29.04  -29.04  -28.96  -28.91
   2   -27.17  -27.43  -27.95  -28.68  -29.56  -30.34  -30.42  -30.02  -29.61  -29.38
   3   -26.81  -27.20  -28.04  -29.44  -31.68  -35.29  -34.44  -31.74  -30.28  -29.62
   4   -25.56  -25.88  -26.53  -27.56  -28.99  -30.86  -30.60  -29.26  -28.38  -27.95
   5   -23.69  -23.87  -24.21  -24.68  -25.22  -25.67  -25.76  -25.58  -25.37  -25.23
   6   -21.72  -21.81  -21.96  -22.17  -22.39  -22.56  -22.65  -22.66  -22.64  -22.62
   7   -20.00  -20.03  -20.11  -20.20  -20.30  -20.38  -20.44  -20.47  -20.49  -20.49
   8   -18.65  -18.67  -18.70  -18.75  -18.80  -18.84  -18.88  -18.91  -18.92  -18.93
   9   -17.75  -17.76  -17.77  -17.80  -17.83  -17.85  -17.88  -17.89  -17.91  -17.91
  10   -17.29  -17.30  -17.31  -17.33  -17.35  -17.36  -17.38  -17.39  -17.40  -17.41

 HEAD WILL BE SAVED ON UNIT   21 AT END OF TIME STEP     6 IN STRESS PERIOD     30

 DRAWDOWN WILL BE SAVED ON UNIT   22 AT END OF TIME STEP     6 IN STRESS PERIOD     30



  -------------------------------------------------------------------------------------
  VOLUMETRIC BUDGET FOR ENTIRE MODEL AT END OF TIME STEP    6 IN STRESS PERIOD     30
  -------------------------------------------------------------------------------------

     CUMULATIVE VOLUMES      L**3       RATES FOR THIS TIME STEP      L**3/T
     ------------------                 ------------------------

           IN:                                      IN:
           ---                                      ---
             STORAGE =    43910395.4186               STORAGE =        3013.3017
       CONSTANT HEAD =      812549.0860         CONSTANT HEAD =         165.6412
               WELLS =   317841000.0000                 WELLS =       30000.0000
    INST. IB STORAGE =    63552581.0537      INST. IB STORAGE =        4944.4274
    DELAY IB STORAGE =   164246631.2572      DELAY IB STORAGE =       14664.0387

            TOTAL IN =   590363156.8155              TOTAL IN =       52787.4090

          OUT:                                     OUT:
          ----                                     ----
             STORAGE =           0.0000               STORAGE =           0.0000
       CONSTANT HEAD =   272552344.7138         CONSTANT HEAD =       22787.4706
               WELLS =   317811000.0000                 WELLS =       30000.0000
    INST. IB STORAGE =       3.1703E-07      INST. IB STORAGE =       2.7015E-11
    DELAY IB STORAGE =       1.5994E-10      DELAY IB STORAGE =       2.3554E-13

           TOTAL OUT =   590363344.7138             TOTAL OUT =       52787.4706

            IN - OUT =        -187.8983              IN - OUT =      -6.1590E-02

 PERCENT DISCREPANCY =          -0.00     PERCENT DISCREPANCY =          -0.00


          TIME SUMMARY AT END OF TIME STEP     6 IN STRESS PERIOD     30
                    SECONDS     MINUTES      HOURS       DAYS        YEARS
                    -----------------------------------------------------------
   TIME STEP LENGTH 9.18681E+06 1.53113E+05  2551.9      106.33     0.29111    
 STRESS PERIOD TIME 3.15619E+07 5.26032E+05  8767.2      365.30      1.0001    
         TOTAL TIME 9.15382E+08 1.52564E+07 2.54273E+05  10595.      29.007    
 

                               VOLUMETRIC BUDGET FOR SYSTEMS OF DELAY INTERBEDS
                                          AT END OF TIME STEP  6 IN STRESS PERIOD 30

          |   C U M U L A T I V E   V O L U M E S   L**3           | R A T E S   F O R  T H I S  T I M E  S T E P   L**3/T  |
   SYSTEM |    CHANGE IN     BOUNDARY                    PERCENT   |    CHANGE IN     BOUNDARY                    PERCENT   |
   NUMBER |     STORAGE        FLOW           SUM      DISCREPANCY |     STORAGE        FLOW           SUM      DISCREPANCY |
  --------|--------------------------------------------------------|--------------------------------------------------------|
      1    0.11243E+06   -0.11243E+06   -0.14552E-10   -0.12943E-13     7.7496        -7.7496       -0.44409E-14   -0.57305E-13
      2    0.16413E+09   -0.16413E+09    0.59605E-07    0.36315E-13     14656.        -14656.         0.0000         0.0000    
  --------|--------------------------------------------------------|--------------------------------------------------------|
 TOTALS:    0.16425E+09   -0.16425E+09    0.59605E-07    0.36290E-13     14664.        -14664.         0.0000         0.0000    
1
                            STRESS PERIOD NO.     31, LENGTH =   365.3000    
                            -----------------------------------------------

                              NUMBER OF TIME STEPS =     6

                               MULTIPLIER FOR DELT =     1.300

                            INITIAL TIME STEP SIZE =   28.63744    

REUSING NON-PARAMETER WELLS FROM LAST STRESS PERIOD

14 WELLS
 
 SOLVING FOR HEAD 

    42 ITERATIONS FOR TIME STEP   1 IN STRESS PERIOD   31

 MAXIMUM HEAD CHANGE FOR EACH ITERATION:

    HEAD CHANGE   HEAD CHANGE   HEAD CHANGE   HEAD CHANGE   HEAD CHANGE
  LAYER,ROW,COL LAYER,ROW,COL LAYER,ROW,COL LAYER,ROW,COL LAYER,ROW,COL
 ----------------------------------------------------------------------
      2.065         2.326         1.900        -1.309        -2.370    
  (  3,  1,  1) (  3,  2,  8) (  3,  3,  3) (  3, 10, 10) (  3,  1,  1)
     0.2291       -0.5256        -1.203       -0.9749        0.7765    
  (  2,  3,  6) (  3,  1,  1) (  3,  1, 10) (  3,  4,  1) (  3, 10, 10)
    -0.7949E-01    0.4100E-01    0.3022E-01   -0.5601E-02    0.5783E-02
  (  2,  8,  1) (  2, 10,  7) (  2, 10,  3) (  2, 10,  1) (  2, 10,  1)
     0.1252E-01    0.3070E-02   -0.7825E-03    0.1268E-02    0.5059E-03
  (  2,  6,  1) (  2, 10,  2) (  3,  9, 10) (  3,  7,  1) (  3,  3,  7)
     0.1265E-02    0.1055E-02    0.1350E-02    0.1533E-02    0.1232E-02
  (  3, 10,  4) (  3, 10,  9) (  3, 10,  4) (  3,  3,  1) (  3,  3,  8)
     0.8271E-03    0.8359E-03    0.5851E-03    0.4061E-03    0.3050E-03
  (  3,  1, 10) (  3,  3,  7) (  3,  3,  7) (  3,  3,  7) (  3,  3,  8)
     0.1964E-03    0.2043E-03    0.1414E-03    0.1001E-03    0.7382E-04
  (  3,  1,  5) (  3,  3,  7) (  3,  3,  7) (  3,  3,  8) (  3,  3,  7)
     0.4870E-04    0.4949E-04    0.3488E-04    0.2430E-04    0.1833E-04
  (  3,  1,  5) (  3,  3,  7) (  3,  3,  7) (  3,  3,  7) (  3,  3,  8)
     0.1181E-04    0.9834E-05
  (  3,  1,  5) (  3,  1,  9)


 OUTPUT CONTROL FOR STRESS PERIOD     31   TIME STEP     1
    SAVE HEAD FOR ALL LAYERS

 HEAD WILL BE SAVED ON UNIT   21 AT END OF TIME STEP     1 IN STRESS PERIOD     31
 
 SOLVING FOR HEAD 
    41 ITERATIONS FOR TIME STEP   2 IN STRESS PERIOD   31

 MAXIMUM HEAD CHANGE FOR EACH ITERATION:

    HEAD CHANGE   HEAD CHANGE   HEAD CHANGE   HEAD CHANGE   HEAD CHANGE
  LAYER,ROW,COL LAYER,ROW,COL LAYER,ROW,COL LAYER,ROW,COL LAYER,ROW,COL
 ----------------------------------------------------------------------
      1.667         1.967         1.861        -1.096        -2.540    
  (  3,  1,  1) (  3,  2,  8) (  3,  3,  3) (  3, 10, 10) (  3,  1,  1)
     0.3601       -0.4256        -1.074        0.2053       -0.3597E-01
  (  2,  3,  6) (  3,  1,  1) (  3,  1, 10) (  3, 10,  1) (  2,  1,  1)
    -0.4743E-01   -0.1093E-01   -0.1842E-02   -0.1006E-02   -0.1318E-02
  (  2,  7,  1) (  2,  1,  2) (  3, 10,  3) (  3,  3,  1) (  3,  1,  8)
     0.1221E-02    0.4146E-03    0.2172E-02    0.1255E-02    0.2247E-02
  (  3, 10,  1) (  3, 10, 10) (  3,  9, 10) (  3,  1,  1) (  3,  1, 10)
     0.1435E-02    0.2586E-02    0.1978E-02    0.1455E-02    0.1112E-02
  (  3,  1,  1) (  3, 10,  1) (  3,  1,  1) (  3,  1,  1) (  3,  1,  1)
     0.6979E-03    0.7303E-03    0.4732E-03    0.3550E-03    0.2528E-03
  (  3,  1,  1) (  3,  1,  1) (  3,  1,  1) (  3,  1,  1) (  3,  1,  1)
     0.1743E-03    0.1576E-03    0.1211E-03    0.7875E-04    0.6142E-04
  (  3,  1,  1) (  3,  1,  2) (  3,  1,  1) (  3,  1,  1) (  3,  1,  1)
     0.3913E-04    0.3983E-04    0.2577E-04    0.1979E-04    0.1389E-04
  (  3,  1,  1) (  3,  1,  1) (  3,  1,  1) (  3,  1,  1) (  3,  1,  1)
     0.9885E-05
  (  3,  1,  1)


 OUTPUT CONTROL FOR STRESS PERIOD     31   TIME STEP     2
    SAVE HEAD FOR ALL LAYERS

 HEAD WILL BE SAVED ON UNIT   21 AT END OF TIME STEP     2 IN STRESS PERIOD     31
 
 SOLVING FOR HEAD 
    39 ITERATIONS FOR TIME STEP   3 IN STRESS PERIOD   31

 MAXIMUM HEAD CHANGE FOR EACH ITERATION:

    HEAD CHANGE   HEAD CHANGE   HEAD CHANGE   HEAD CHANGE   HEAD CHANGE
  LAYER,ROW,COL LAYER,ROW,COL LAYER,ROW,COL LAYER,ROW,COL LAYER,ROW,COL
 ----------------------------------------------------------------------
      1.291         1.569         1.628       -0.9624        -2.593    
  (  3,  1,  1) (  3,  2,  8) (  3,  3,  3) (  3, 10, 10) (  3,  1,  1)
     0.4942       -0.2905       -0.7910        0.4812       -0.2772E-01
  (  2,  3,  6) (  3,  1,  1) (  3,  1, 10) (  3, 10,  1) (  2,  1,  1)
    -0.3657E-01   -0.1115E-01   -0.4184E-02   -0.2423E-02   -0.1114E-02
  (  2,  6,  1) (  2,  1,  2) (  3,  1,  1) (  3,  1, 10) (  2, 10,  1)
    -0.7742E-03    0.1548E-02    0.1334E-02    0.2505E-02    0.2317E-02
  (  2,  9,  1) (  3, 10, 10) (  3,  2,  1) (  3,  7,  4) (  3,  1,  1)
     0.1388E-02    0.1718E-02    0.1164E-02    0.7435E-03    0.5234E-03
  (  3,  1,  1) (  3,  2,  3) (  3,  2,  3) (  3,  2,  3) (  3,  2,  3)
     0.2939E-03    0.3683E-03    0.2567E-03    0.1603E-03    0.1175E-03
  (  2,  9,  1) (  3,  2,  3) (  3,  2,  3) (  3,  2,  3) (  3,  2,  3)
     0.8340E-04    0.8191E-04    0.5586E-04    0.3622E-04    0.2541E-04
  (  2,  9,  1) (  3,  2,  3) (  3,  2,  3) (  3,  2,  3) (  3,  2,  3)
     0.1514E-04    0.1721E-04    0.1232E-04    0.6558E-05
  (  3,  4,  1) (  3,  2,  3) (  3,  2,  3) (  3,  1,  1)


 OUTPUT CONTROL FOR STRESS PERIOD     31   TIME STEP     3
    SAVE HEAD FOR ALL LAYERS

 HEAD WILL BE SAVED ON UNIT   21 AT END OF TIME STEP     3 IN STRESS PERIOD     31
 
 SOLVING FOR HEAD 
    35 ITERATIONS FOR TIME STEP   4 IN STRESS PERIOD   31

 MAXIMUM HEAD CHANGE FOR EACH ITERATION:

    HEAD CHANGE   HEAD CHANGE   HEAD CHANGE   HEAD CHANGE   HEAD CHANGE
  LAYER,ROW,COL LAYER,ROW,COL LAYER,ROW,COL LAYER,ROW,COL LAYER,ROW,COL
 ----------------------------------------------------------------------
     0.9482         1.171         1.267       -0.8973        -2.512    
  (  3,  1,  1) (  3,  1, 10) (  3,  3,  3) (  3, 10, 10) (  3,  1,  1)
     0.4147        0.7525E-01    0.1540E-01   -0.1282E-01   -0.9875E-02
  (  2,  3,  8) (  3,  9,  7) (  2,  1,  7) (  3,  1,  1) (  3,  4,  3)
     0.1656E-01   -0.5825E-02   -0.3228E-02   -0.1426E-02    0.1706E-02
  (  2,  7,  1) (  3,  3,  3) (  3,  5,  3) (  3,  1,  7) (  3,  1,  3)
     0.1544E-02    0.2808E-02    0.2244E-02    0.1434E-02    0.1011E-02
  (  3, 10,  1) (  3,  1,  1) (  3,  2,  1) (  3,  1,  1) (  3,  1,  1)
     0.5489E-03    0.6898E-03    0.4917E-03    0.2897E-03    0.2024E-03
  (  3,  1,  1) (  3,  2,  2) (  3,  1,  1) (  3,  1,  1) (  3,  1,  1)
     0.1110E-03    0.1407E-03    0.9617E-04    0.5911E-04    0.4230E-04
  (  3,  1, 10) (  3,  1,  1) (  3,  2,  1) (  3,  1,  1) (  3,  1,  1)
     0.2292E-04    0.2833E-04    0.2031E-04    0.1218E-04    0.7904E-05
  (  3,  1,  1) (  3,  2,  2) (  3,  1,  1) (  3,  1,  1) (  3,  1, 10)


 OUTPUT CONTROL FOR STRESS PERIOD     31   TIME STEP     4
    SAVE HEAD FOR ALL LAYERS

 HEAD WILL BE SAVED ON UNIT   21 AT END OF TIME STEP     4 IN STRESS PERIOD     31
 
 SOLVING FOR HEAD 
    31 ITERATIONS FOR TIME STEP   5 IN STRESS PERIOD   31

 MAXIMUM HEAD CHANGE FOR EACH ITERATION:

    HEAD CHANGE   HEAD CHANGE   HEAD CHANGE   HEAD CHANGE   HEAD CHANGE
  LAYER,ROW,COL LAYER,ROW,COL LAYER,ROW,COL LAYER,ROW,COL LAYER,ROW,COL
 ----------------------------------------------------------------------
    -0.8348        0.7952        0.8394       -0.8763        -2.249    
  (  2,  3,  6) (  2,  3,  6) (  3,  3,  3) (  3, 10, 10) (  3,  1,  1)
     0.6690        0.3754        0.1892        0.4487E-01    0.2705E-01
  (  3,  1, 10) (  3,  9,  3) (  2,  8,  5) (  2, 10,  1) (  2,  1,  1)
     0.7170E-01    0.9823E-02   -0.5439E-02   -0.2808E-02   -0.1836E-02
  (  2,  6,  1) (  2,  1,  2) (  3,  7,  4) (  3,  7,  2) (  3,  7,  2)
    -0.7438E-03   -0.1243E-02   -0.9774E-03   -0.5276E-03   -0.3389E-03
  (  2,  5,  1) (  3,  7,  3) (  3,  7,  3) (  3,  7,  3) (  3,  7,  3)
    -0.1426E-03   -0.2337E-03   -0.1847E-03   -0.9821E-04   -0.6615E-04
  (  3, 10, 10) (  3,  7,  3) (  3,  7,  3) (  3,  7,  3) (  3,  8,  4)
    -0.2558E-04   -0.4416E-04   -0.3464E-04   -0.1935E-04   -0.1219E-04
  (  3,  3,  1) (  3,  7,  3) (  3,  7,  3) (  3,  8,  4) (  3,  7,  3)
     0.4931E-05
  (  2,  8,  1)


 OUTPUT CONTROL FOR STRESS PERIOD     31   TIME STEP     5
    SAVE HEAD FOR ALL LAYERS

 HEAD WILL BE SAVED ON UNIT   21 AT END OF TIME STEP     5 IN STRESS PERIOD     31
 
 SOLVING FOR HEAD 
    31 ITERATIONS FOR TIME STEP   6 IN STRESS PERIOD   31

 MAXIMUM HEAD CHANGE FOR EACH ITERATION:

    HEAD CHANGE   HEAD CHANGE   HEAD CHANGE   HEAD CHANGE   HEAD CHANGE
  LAYER,ROW,COL LAYER,ROW,COL LAYER,ROW,COL LAYER,ROW,COL LAYER,ROW,COL
 ----------------------------------------------------------------------
    -0.9643        0.9038        0.3663       -0.9767       -0.8589    
  (  2,  3,  6) (  2,  3,  6) (  3,  3,  3) (  3, 10,  2) (  3,  1,  1)
     0.3990        0.2375        0.9484E-01   -0.1871E-01   -0.1479E-01
  (  3,  1, 10) (  3,  2,  2) (  2,  3,  9) (  3,  2,  1) (  2,  1, 10)
     0.1939E-01   -0.8964E-02   -0.7264E-02   -0.3665E-02   -0.2183E-02
  (  2,  7,  1) (  3,  2,  4) (  3,  2,  3) (  3,  2,  5) (  3,  2,  4)
    -0.9611E-03   -0.1487E-02   -0.1250E-02   -0.6028E-03   -0.3872E-03
  (  2,  7,  1) (  3,  2,  3) (  3,  2,  5) (  3,  3,  4) (  3,  2,  4)
    -0.1699E-03   -0.2574E-03   -0.2104E-03   -0.1081E-03   -0.6451E-04
  (  2,  9,  1) (  3,  2,  4) (  3,  3,  4) (  3,  3,  4) (  3,  3,  4)
     0.3297E-04   -0.4335E-04   -0.3742E-04   -0.1833E-04   -0.1188E-04
  (  2,  3,  1) (  3,  3,  4) (  3,  3,  4) (  3,  3,  4) (  3,  3,  5)
    -0.4867E-05
  (  2,  9,  1)


 OUTPUT CONTROL FOR STRESS PERIOD     31   TIME STEP     6
    PRINT BUDGET
    PRINT HEAD FOR ALL LAYERS
    SAVE HEAD FOR ALL LAYERS
    SAVE DRAWDOWN FOR ALL LAYERS
1
              HEAD IN LAYER   1 AT END OF TIME STEP   6 IN STRESS PERIOD   31
  ---------------------------------------------------------------------------

           1       2       3       4       5       6       7       8       9      10
 ...................................................................................
   1    19.66   19.31   18.64   18.21   18.00   18.00   18.21   18.63   19.30   19.66
   2    18.66   18.15   17.72   17.42   17.26   17.26   17.41   17.71   18.14   18.65
   3    17.23   16.73   16.36   16.11   15.98   15.98   16.10   16.35   16.72   17.22
   4    15.30   14.86   14.56   14.37   14.27   14.27   14.36   14.55   14.85   15.29
   5    12.56   12.47   12.36   12.28   12.24   12.23   12.28   12.36   12.46   12.55
   6    10.17   10.15   10.11   10.07   10.05   10.05   10.07   10.11   10.14   10.17
   7     7.91    7.89    7.86    7.83    7.81    7.81    7.82    7.86    7.89    7.91
   8     5.74    5.69    5.62    5.54    5.49    5.49    5.53    5.61    5.69    5.74
   9     3.77    3.63    3.38    3.11    2.99    2.99    3.10    3.38    3.63    3.76
  10     2.36    2.02    1.27    0.00    0.00    0.00    0.00    1.27    2.01    2.36
1
              HEAD IN LAYER   2 AT END OF TIME STEP   6 IN STRESS PERIOD   31
  ---------------------------------------------------------------------------

           1       2       3       4       5       6       7       8       9      10
 ...................................................................................
   1    -5.77   -5.77   -5.77   -5.79   -5.80   -5.82   -5.84   -5.85   -5.87   -5.90
   2    -5.83   -5.06   -5.38   -5.87   -6.36   -6.73   -6.70   -6.37   -6.01   -6.03
   3    -5.93   -5.56   -6.07   -6.84   -7.26   -8.26   -7.96   -7.19   -6.89   -6.17
   4    -6.05   -5.80   -6.22   -6.79   -7.09   -7.46   -7.38   -7.08   -6.90   -6.29
   5    -6.18   -5.97   -6.15   -6.42   -6.70   -6.92   -6.95   -6.82   -6.65   -6.41
   6    -6.33   -6.09   -6.15   -6.27   -6.38   -6.47   -6.51   -6.50   -6.48   -6.53
   7    -6.49   -6.31   -6.34   -6.40   -6.46   -6.50   -6.52   -6.52   -6.53   -6.65
   8    -6.65   -6.69   -6.75   -6.81   -6.86   -6.88   -6.87   -6.85   -6.82   -6.77
   9    -6.81   -7.02   -7.05   -7.09   -7.11   -7.12   -7.10   -7.07   -7.03   -6.89
  10    -6.96   -6.99   -7.02   -7.04   -7.06   -7.06   -7.05   -7.04   -7.02   -7.00
1
              HEAD IN LAYER   3 AT END OF TIME STEP   6 IN STRESS PERIOD   31
  ---------------------------------------------------------------------------

           1       2       3       4       5       6       7       8       9      10
 ...................................................................................
   1   -27.68  -27.85  -28.17  -28.59  -29.03  -29.38  -29.55  -29.55  -29.47  -29.42
   2   -27.68  -27.94  -28.45  -29.19  -30.06  -30.84  -30.93  -30.53  -30.12  -29.89
   3   -27.32  -27.71  -28.54  -29.94  -32.18  -35.80  -34.95  -32.25  -30.78  -30.12
   4   -26.06  -26.38  -27.03  -28.05  -29.48  -31.36  -31.09  -29.75  -28.88  -28.45
   5   -24.18  -24.35  -24.69  -25.17  -25.70  -26.16  -26.25  -26.07  -25.85  -25.72
   6   -22.20  -22.28  -22.44  -22.65  -22.86  -23.04  -23.13  -23.14  -23.12  -23.09
   7   -20.46  -20.50  -20.57  -20.67  -20.76  -20.85  -20.91  -20.94  -20.96  -20.96
   8   -19.11  -19.13  -19.16  -19.21  -19.26  -19.30  -19.34  -19.37  -19.38  -19.39
   9   -18.20  -18.21  -18.23  -18.25  -18.28  -18.31  -18.33  -18.35  -18.36  -18.36
  10   -17.74  -17.75  -17.76  -17.78  -17.79  -17.81  -17.83  -17.84  -17.85  -17.86

 HEAD WILL BE SAVED ON UNIT   21 AT END OF TIME STEP     6 IN STRESS PERIOD     31

 DRAWDOWN WILL BE SAVED ON UNIT   22 AT END OF TIME STEP     6 IN STRESS PERIOD     31



  -------------------------------------------------------------------------------------
  VOLUMETRIC BUDGET FOR ENTIRE MODEL AT END OF TIME STEP    6 IN STRESS PERIOD     31
  -------------------------------------------------------------------------------------

     CUMULATIVE VOLUMES      L**3       RATES FOR THIS TIME STEP      L**3/T
     ------------------                 ------------------------

           IN:                                      IN:
           ---                                      ---
             STORAGE =    44996675.3442               STORAGE =        2946.2010
       CONSTANT HEAD =      873979.8797         CONSTANT HEAD =         169.2673
               WELLS =   328800000.0000                 WELLS =       30000.0000
    INST. IB STORAGE =    65360933.9877      INST. IB STORAGE =        4957.9330
    DELAY IB STORAGE =   169579192.5866      DELAY IB STORAGE =       14552.2502

            TOTAL IN =   609610781.7983              TOTAL IN =       52625.6515

          OUT:                                     OUT:
          ----                                     ----
             STORAGE =           0.0000               STORAGE =           0.0000
       CONSTANT HEAD =   280840977.6050         CONSTANT HEAD =       22625.7030
               WELLS =   328770000.0000                 WELLS =       30000.0000
    INST. IB STORAGE =       3.3365E-07      INST. IB STORAGE =       2.6667E-11
    DELAY IB STORAGE =       1.5994E-10      DELAY IB STORAGE =           0.0000

           TOTAL OUT =   609610977.6050             TOTAL OUT =       52625.7030

            IN - OUT =        -195.8068              IN - OUT =      -5.1491E-02

 PERCENT DISCREPANCY =          -0.00     PERCENT DISCREPANCY =          -0.00


          TIME SUMMARY AT END OF TIME STEP     6 IN STRESS PERIOD     31
                    SECONDS     MINUTES      HOURS       DAYS        YEARS
                    -----------------------------------------------------------
   TIME STEP LENGTH 9.18681E+06 1.53113E+05  2551.9      106.33     0.29111    
 STRESS PERIOD TIME 3.15619E+07 5.26032E+05  8767.2      365.30      1.0001    
         TOTAL TIME 9.46944E+08 1.57824E+07 2.63040E+05  10960.      30.007    
 

                               VOLUMETRIC BUDGET FOR SYSTEMS OF DELAY INTERBEDS
                                          AT END OF TIME STEP  6 IN STRESS PERIOD 31

          |   C U M U L A T I V E   V O L U M E S   L**3           | R A T E S   F O R  T H I S  T I M E  S T E P   L**3/T  |
   SYSTEM |    CHANGE IN     BOUNDARY                    PERCENT   |    CHANGE IN     BOUNDARY                    PERCENT   |
   NUMBER |     STORAGE        FLOW           SUM      DISCREPANCY |     STORAGE        FLOW           SUM      DISCREPANCY |
  --------|--------------------------------------------------------|--------------------------------------------------------|
      1    0.11528E+06   -0.11528E+06   -0.14552E-10   -0.12623E-13     7.5378        -7.5378       -0.88818E-15   -0.11783E-13
      2    0.16946E+09   -0.16946E+09    0.59605E-07    0.35172E-13     14545.        -14545.       -0.36380E-11   -0.25012E-13
  --------|--------------------------------------------------------|--------------------------------------------------------|
 TOTALS:    0.16958E+09   -0.16958E+09    0.59605E-07    0.35149E-13     14552.        -14552.       -0.36380E-11   -0.24999E-13

 Final Remark:

   The solver successfully met the user supplied convergence criteria, HCLOSE and RCLOSE, for all 181 time steps.

   Please check the "VOLUMETRIC BUDGET FOR ENTIRE MODEL" to ensure that mass rate balance errors are acceptable for all time steps.

   The cumulative mass error for the entire simulation is 0.00 %




 Simulation finished at  


 Which had an elapsed run time of: 0.0 seconds


    OneWater Simulation Now Complete


