
      MMMMMMM                                       MM      MMM     MM
    MMM     MMM    MM      M   MMMMMMMM             LM     DM M     ML     MM     MMMMMMMMM  MMMMMMMM  MMMMMMMM
   MM         MM   MMM     M   MM                    MM    MM M     M     MMMM        M      M         MM     NM
   MM         MM   MM M    M   MM                    MM    M  MM   MM    MM  MM       M      M         MM      M
   MM         MM   MM  M   M   MMMMMMMM               MN  MM   M   MM   MM    MM      M      MMMMMMM   MMMMMMMMM
   MM         MM   MM   M  M   MM         MMMMMMM     MM  M    MM MM    MMMMMMMM      M      M         MM   MM
   MM         MM   MM    M M   MM                     LM MM    NM MM   MM      MM     M      M         MM    MM
    MM       NM    MM     MM   MM                      M M      M M   MN        MM    M      M         MM     MM
     MMMMMMMMN     MM      M   MMMMMMMM                7MM      7MM  MN          MM   M      MMMMMMMM  MM      MM


 MODFLOW-OWHM v2.0.01  


                        MODFLOW
            ONE-WATER HYDROLOGIC-FLOW MODEL

    U.S. GEOLOGICAL SURVEY MODULAR FINITE-DIFFERENCE 
           CONJUNCTIVE USE SIMULATION PROGRAM

                     Version 2.0

 Release: 01          4/23/2020

 Includes:
          MODFLOW-2005 Version 1.12.0   02/03/2017
          MODFLOW-FMP  Version 4.00.0   04/23/2017
          MODFLOW-SWR  Version 1.04.0   09/15/2016
          MODFLOW-SWI  Version 2.00.0   07/22/2013
          MODFLOW-LGR  Version 2.00.0   09/19/2013
          MODFLOW-NWT  Version 1.2.0    03/01/2020
          MODFLOW-CFP  Version 1.09.57  09/12/2017


 OneWater Simulation Initiated at 


 LIST FILE: ./output/UZFtest2.lst
      UNIT: 9

OPENING DATA FILES [DATA AND DATA(BINARY)]

OPENED DATA FILE ON UNIT     58 WITH FILENAME OF: ./output/UZFtest2hd.out
OPENED DATA FILE ON UNIT     61 WITH FILENAME OF: ./output/UZFtest2.uzfot
OPENED DATA FILE ON UNIT     65 WITH FILENAME OF: ./output/UZFtest2.uzf1
OPENED DATA FILE ON UNIT     66 WITH FILENAME OF: ./output/UZFtest2.uzf2
OPENED DATA FILE ON UNIT     67 WITH FILENAME OF: ./output/UZFtest2.uzf3
OPENED DATA FILE ON UNIT     68 WITH FILENAME OF: ./output/UZFtest2.uzf4
OPENED DATA FILE ON UNIT     81 WITH FILENAME OF: ./output/UZFtest2.flw
OPENED DATA FILE ON UNIT     83 WITH FILENAME OF: ./output/UZFtest2.sg1
OPENED DATA FILE ON UNIT     84 WITH FILENAME OF: ./output/UZFtest2.sg2
OPENED DATA FILE ON UNIT     85 WITH FILENAME OF: ./output/UZFtest2.sg3
OPENED DATA FILE ON UNIT     86 WITH FILENAME OF: ./output/UZFtest2.sg4
OPENED DATA FILE ON UNIT     87 WITH FILENAME OF: ./output/UZFtest2.sg5
OPENED DATA FILE ON UNIT     88 WITH FILENAME OF: ./output/UZFtest2.sg6
OPENED DATA FILE ON UNIT     89 WITH FILENAME OF: ./output/UZFtest2.sg7
OPENED DATA FILE ON UNIT     90 WITH FILENAME OF: ./output/UZFtest2.sg8
OPENED DATA FILE ON UNIT     91 WITH FILENAME OF: ./output/UZFtest2dv.sg9

OPENING PACKAGES

BAS6 PACKAGE OPENED.
LPF  PACKAGE OPENED.
DIS  PACKAGE OPENED.
SIP  PACKAGE OPENED.
OC   PACKAGE OPENED.
SFR  PACKAGE OPENED.
WEL  PACKAGE OPENED.
GHB  PACKAGE OPENED.
UZF  PACKAGE OPENED.
GAGE PACKAGE OPENED.

NOTIFICATION: A FILE UNIT NUMBER WAS FOUND FOR EITHER THE LIST FILE OR A PACAKGE.
IT WILL BE USED EVEN THOUGH UNIT NUMBERS FOR THE LIST FILE AND PACKAGES ARE NOW OPTIONAL.
[IT IS RECOMMENDED TO STILL USE A UNIT NUMBER FOR DATA and DATA(BINARY) ]


 BAS -- BASIC PACKAGE, VERSION OWHM INPUT READ FROM UNIT    75
 
MODFLOW was compiled using uniform precision (Precision => Number of meaningful digits in numbers)
Precision of REAL and DOUBLE PRECISION variables: 15

 DISCRETIZATION INPUT DATA READ FROM UNIT    8

-- READING DIS PACKAGE INPUT --

# UZFtest2
# MODFLOW-2005 Example problem documented in:
#   Harbaugh, A.W., 2005, MODFLOW-2005, the U.S. Geological Survey modular ground-water model -- the Ground-Water Flow Process: U.S. Geological Survey Techniques and Methods 6-A16.
#   Harbaugh, A.W., Banta, E.R., Hill, M.C. and McDonald, M.G., 2000, MODFLOW-2000, The U.S. Geological Survey Modular Ground-Water Model - User Guide to Modularization Concepts and the Ground-Water Flow Process: U.S Geological Survey Open-File Report 2000-92, 121 p., https://doi.org/10.3133/ofr200092
#   Niswonger, R.G., Prudic, D.E., and Regan, R.S., 2006, Documentation of the Unsaturated-Zone Flow (UZF1) Package for modeling unsaturated flow between the land surface and the water table with MODFLOW-2005: U.S. Geological Techniques and Methods Book 6, Chapter A19, 62 p.
#
#      -Comments are preceded by a # sign
#
#-----------------------------------------------------------------------------------------------------------------------------------------------------
#Test problem 2-- Discretization input
#Example problem using the UZF1 Package


*** DIS COORDINATE SYSTEM NOT SEPECIFIED ***
DEFAULT VALUES APPLIED ARE 0° ROTATION
WITH THE ORIGIN (0,0) LOCATED AT THE MODEL'S LOWER LEFT CORNER




DIS COORDINATE SYSTEM SEPECIFIED WITH:
GRID ROTATION OF 0.0°
WITH THE ORIGIN LOCATED AT THE OUTER MOST CORNER OF MODEL CELL [15,1] WITH:
X-COORDINATE:0.0
Y-COORDINATE:0.0
    1 LAYERS        15 ROWS        10 COLUMNS
     12 STRESS PERIOD(S) IN SIMULATION
 MODEL TIME UNIT IS SECONDS
 MODEL LENGTH UNIT IS FEET
  Confining bed flag for each layer:
   0

                     DELR =   5000.00    

                     DELC =   5000.00    



           TOP ELEVATION OF LAYER 1
 READING ON UNIT    8 WITH FORMAT: (10F7.0)            

            1           2           3           4           5           6           7           8           9          10
 ........................................................................................................................
   1    1105.       1105.       0.000       0.000       0.000       0.000       0.000       0.000       0.000       0.000    
   2    1105.       1095.       1105.       0.000       0.000       1100.       1100.       1110.       0.000       0.000    
   3    0.000       1100.       1085.       1080.       1078.       1076.       1073.       1090.       0.000       0.000    
   4    1110.       1100.       1090.       1085.       1076.       1080.       1080.       1070.       1100.       0.000    
   5    1110.       1100.       1085.       1080.       1078.       1074.       1077.       1066.       1075.       1080.    
   6    1105.       1095.       1080.       1077.       1073.       1069.       1070.       1063.       1085.       1095.    
   7    1105.       1090.       1075.       1072.       1070.       1065.       1065.       1069.       1090.       0.000    
   8    0.000       1080.       1070.       1068.       1063.       1060.       1063.       1067.       1090.       0.000    
   9    0.000       1075.       1065.       1062.       1058.       1052.       1055.       1065.       1090.       0.000    
  10    0.000       1070.       1060.       1055.       1046.       1046.       1044.       1060.       1088.       1100.    
  11    0.000       1055.       1050.       1045.       1041.       1042.       1040.       1050.       1075.       0.000    
  12    1027.       1028.       1028.       1032.       1032.       1033.       1032.       1040.       1060.       0.000    
  13    997.0       1004.       1008.       1014.       1020.       1027.       1032.       1038.       1050.       0.000    
  14    0.000       1030.       1040.       1045.       1050.       1050.       1050.       1050.       1044.       0.000    
  15    0.000       0.000       1080.       1080.       1080.       1080.       0.000       0.000       0.000       0.000    



             MODEL LAYER BOTTOM EL. FOR LAYER   1
 READING ON UNIT    8 WITH FORMAT: (10F7.0)            

            1           2           3           4           5           6           7           8           9          10
 ........................................................................................................................
   1    1000.       1000.       0.000       0.000       0.000       0.000       0.000       0.000       0.000       0.000    
   2    1000.       900.0       900.0       0.000       0.000       950.0       950.0       950.0       0.000       0.000    
   3    0.000       850.0       670.0       680.0       680.0       770.0       770.0       890.0       0.000       0.000    
   4    925.0       850.0       650.0       650.0       650.0       680.0       740.0       850.0       950.0       0.000    
   5    925.0       800.0       650.0       600.0       600.0       600.0       650.0       720.0       850.0       950.0    
   6    925.0       800.0       650.0       600.0       550.0       600.0       650.0       720.0       850.0       970.0    
   7    925.0       800.0       650.0       600.0       550.0       600.0       650.0       720.0       950.0       0.000    
   8    0.000       850.0       700.0       650.0       570.0       600.0       700.0       850.0       950.0       0.000    
   9    0.000       850.0       700.0       650.0       540.0       580.0       700.0       850.0       950.0       0.000    
  10    0.000       850.0       700.0       630.0       530.0       580.0       650.0       800.0       900.0       950.0    
  11    0.000       850.0       700.0       620.0       580.0       620.0       700.0       800.0       900.0       0.000    
  12    900.0       830.0       710.0       640.0       600.0       650.0       700.0       800.0       900.0       0.000    
  13    900.0       810.0       750.0       700.0       650.0       700.0       750.0       800.0       900.0       0.000    
  14    0.000       950.0       850.0       850.0       850.0       850.0       850.0       850.0       850.0       0.000    
  15    0.000       0.000       950.0       950.0       950.0       950.0       0.000       0.000       0.000       0.000    


 STRESS PERIOD     LENGTH       TIME STEPS     MULTIPLIER FOR DELT    SS FLAG  (OPTIONAL TIME STEP LENGTH)
 ---------------------------------------------------------------------------------------------------
        1         2628000.          1                  1.00000         SS
        2         2628000.         15                  1.10000         TR
        3         2628000.         15                  1.10000         TR
        4         2628000.         15                  1.10000         TR
        5         2628000.         15                  1.10000         TR
        6         2628000.         15                  1.10000         TR
        7         2628000.         15                  1.10000         TR
        8         2628000.         15                  1.10000         TR
        9         2628000.         15                  1.10000         TR
       10         2628000.         15                  1.10000         TR
       11         2628000.         15                  1.10000         TR
       12         2628000.         15                  1.10000         TR

 COMBINED STEADY-STATE AND TRANSIENT SIMULATION




-- READING BAS PACKAGE INPUT --

# UZFtest2
# MODFLOW-2005 Example problem documented in:
#   Harbaugh, A.W., 2005, MODFLOW-2005, the U.S. Geological Survey modular ground-water model -- the Ground-Water Flow Process: U.S. Geological Survey Techniques and Methods 6-A16.
#   Harbaugh, A.W., Banta, E.R., Hill, M.C. and McDonald, M.G., 2000, MODFLOW-2000, The U.S. Geological Survey Modular Ground-Water Model - User Guide to Modularization Concepts and the Ground-Water Flow Process: U.S Geological Survey Open-File Report 2000-92, 121 p., https://doi.org/10.3133/ofr200092
#   Niswonger, R.G., Prudic, D.E., and Regan, R.S., 2006, Documentation of the Unsaturated-Zone Flow (UZF1) Package for modeling unsaturated flow between the land surface and the water table with MODFLOW-2005: U.S. Geological Techniques and Methods Book 6, Chapter A19, 62 p.
#
# Input modified for MODFLOW-OWHM by including the BAS options:
#     BUDGETDB ./output/UZFtest2_VolumetricBudget.txt  CUMULATIVE_HEAD_CHANGE ./output/UZFtest2_CumHCHG.txt  PRINT_HEAD NPER ./output/UZFtest2_Head.txt
#
#-----------------------------------------------------------------------------------------------------------------------------------------------------
#Test Simulation 2-- Example problem using the UZF1 Package
#Modified from example Problem 1 of SFR1 documentation report


 THE BAS PACKAGE NOW DEFAULTS TO FREE FORMAT.
 USE OPTION "NOFREE" TO DISABLE FREE FORMAT.



########################################################################################################

                           WARNING_MESSAGE

         THE FOLLOWING COMMENTS WERE PASSED TO THE WARNING ROUTINE

THE WARNING IS BELIEVED TO HAVE ORIGINATED FROM THE FOLLOWING FILE:
"examples\mf-2005\UZFtest2.ba6"

THE GUESSED LINE THAT THE WARNING OCCURED ON IS:
"FREE  BUDGETDB ./output/UZFtest2_VolumetricBudget.txt  CUMULATIVE_HEAD_CHANGE ./output/UZFtest2_CumHCHG.txt  PRINT_HEAD NPER ./output/UZFtest2_Head.txt"

THE DESRIPTION OF THE WARNING IS:

FOUND BAS PACKAGE OPTION KEYWORDS ALONG PACKAGE "OPTIONS LINE" (ie Data Set 1)

The BAS package options should be within an "OPTIONS BLOCK" rather than along the first line of input.

The BAS package will attempt to read the options line, but some advanced options may fail to load due to their complex input,
For example the option "SHIFT_STRT" uses ULOAD to read NLAY shift values, which would crash under certain ULOAD keyword combinations.

Also note that if any of the options specify a GENERIC_OUTPUT file, 
then there may be additional warnings about a BAS OPTION not being a recognized GENERIC_OUTPUT post-keyword.
These warnings can be ignored, since its a post-keyword warning pertaining to the GENERIC_OUTPUT file and 
the BAS OPTION is still processed by the BAS package.

It is recommended for new models to use "BEGIN OPTIONS" and then have one option per line and
end the options block with the word "END" in place of single line of options.

For example:

BEGIN OPTIONS

  START_DATE  4/23/1901
  SHOWPROGRESS
  NOCBC
  BUDGETDB ./output/VolumetricBudget.txt
  PAUSE

END OPTIONS

             - Note that "OPTIONS BLOCK" maybe empty or entirely not present,
               nor is it required to specify an "OPTIONS LINE"

             - DO NOT specify both an "OPTIONS BLOCK" and "OPTIONS LINE" at the same time.

########################################################################################################



 NOW READING BAS OPTIONS

 FOUND OPTION: FREE
    THE FREE FORMAT OPTION HAS BEEN SELECTED
         -NOTE THIS NOW IS THE DEFAULT AND NOT NECESSARY.

 FOUND OPTION: BUDGETDB


########################################################################################################

                           WARNING_MESSAGE

         THE FOLLOWING COMMENTS WERE PASSED TO THE WARNING ROUTINE

THE WARNING IS BELIEVED TO HAVE ORIGINATED FROM THE FOLLOWING FILE:
"examples\mf-2005\UZFtest2.ba6"

THE GUESSED LINE THAT THE WARNING OCCURED ON IS:
"FREE  BUDGETDB ./output/UZFtest2_VolumetricBudget.txt  CUMULATIVE_HEAD_CHANGE ./output/UZFtest2_CumHCHG.txt  PRINT_HEAD NPER ./output/UZFtest2_Head.txt"

THE DESRIPTION OF THE WARNING IS:

...CHECK_FOR_POST_KEY WARNINGS...
 THE FOLLOWING MESSAGES WERE PASSED WHILE CHECKING FOR ANY ADDITIONAL KEYWORDS ON LOADED LINE.


FAILED TO IDENTIFY THE FOLLOWING POST-KEYWORD: 

"CUMULATIVE_HEAD_CHANGE"

IT WILL BE IGNORED AND NO FURTHER KEYWORDS WILL BE CHECKED/INCLUDED TO THE RIGHT OF IT.
TO SUPRESS THIS WARNING PLEASE PLACE A "#" SYMBOL TO THE LEFT OF THE WORD TO INDICATE EVERYTHING TO THE RIGHT OF THE # IS A COMMENT

########################################################################################################



 FOUND OPTION: CUMULATIVE_HEAD_CHANGE
    THIS OPTION IS ONLY USEFUL FOR MODEL RESULT COMPARISON WITH DIFFERENT CODE COMPARISONS.



########################################################################################################

                           WARNING_MESSAGE

         THE FOLLOWING COMMENTS WERE PASSED TO THE WARNING ROUTINE

THE WARNING IS BELIEVED TO HAVE ORIGINATED FROM THE FOLLOWING FILE:
"examples\mf-2005\UZFtest2.ba6"

THE GUESSED LINE THAT THE WARNING OCCURED ON IS:
"FREE  BUDGETDB ./output/UZFtest2_VolumetricBudget.txt  CUMULATIVE_HEAD_CHANGE ./output/UZFtest2_CumHCHG.txt  PRINT_HEAD NPER ./output/UZFtest2_Head.txt"

THE DESRIPTION OF THE WARNING IS:

...CHECK_FOR_POST_KEY WARNINGS...
 THE FOLLOWING MESSAGES WERE PASSED WHILE CHECKING FOR ANY ADDITIONAL KEYWORDS ON LOADED LINE.


FAILED TO IDENTIFY THE FOLLOWING POST-KEYWORD: 

"PRINT_HEAD"

IT WILL BE IGNORED AND NO FURTHER KEYWORDS WILL BE CHECKED/INCLUDED TO THE RIGHT OF IT.
TO SUPRESS THIS WARNING PLEASE PLACE A "#" SYMBOL TO THE LEFT OF THE WORD TO INDICATE EVERYTHING TO THE RIGHT OF THE # IS A COMMENT

########################################################################################################



 FOUND OPTION: PRINT_HEAD    SP    TS   FILE
                             12    15   ./output/UZFtest2_Head.txt

 THE MAX STORAGE FOR PROPERTIES DEFINED BY PARAMETERS IS: 
 MAX STORAGE OF PARAMETERS (MXPAR)  IS       2000
 MAX STORAGE OF INSTANCES  (MXINST) IS      50000
 MAX STORAGE OF CLUSTERS   (MXCLST) IS    2000000




                     BOUNDARY ARRAY FOR LAYER   1
 READING ON UNIT   75 WITH FORMAT: (20I4)              

                1           2           3           4           5           6           7           8           9          10
 ............................................................................................................................
   1            1           1           0           0           0           0           0           0           0           0
   2            1           1           1           0           0           1           1           1           0           0
   3            0           1           1           1           1           1           1           1           0           0
   4            1           1           1           1           1           1           1           1           1           0
   5            1           1           1           1           1           1           1           1           1           1
   6            1           1           1           1           1           1           1           1           1           1
   7            1           1           1           1           1           1           1           1           1           0
   8            0           1           1           1           1           1           1           1           1           0
   9            0           1           1           1           1           1           1           1           1           0
  10            0           1           1           1           1           1           1           1           1           1
  11            0           1           1           1           1           1           1           1           1           0
  12            1           1           1           1           1           1           1           1           1           0
  13            1           1           1           1           1           1           1           1           1           0
  14            0           1           1           1           1           1           1           1           1           0
  15            0           0           1           1           1           1           0           0           0           0

 AQUIFER HEAD WILL BE SET TO 6999.0 AT ALL NO-FLOW NODES (IBOUND=0).




                       INITIAL HEAD FOR LAYER   1
 READING ON UNIT   75 WITH FORMAT: (10F8.0)            

            1           2           3           4           5           6           7           8           9          10
 ........................................................................................................................
   1    1093.       1089.       6999.       6999.       6999.       6999.       6999.       6999.       6999.       6999.    
   2    1090.       1087.       1081.       6999.       6999.       1072.       1071.       1071.       6999.       6999.    
   3    6999.       1079.       1078.       1074.       1072.       1071.       1069.       1068.       6999.       6999.    
   4    1069.       1071.       1070.       1067.       1065.       1064.       1064.       1066.       1066.       6999.    
   5    1065.       1064.       1063.       1062.       1061.       1061.       1060.       1062.       1066.       1068.    
   6    1060.       1058.       1057.       1056.       1056.       1057.       1057.       1059.       1062.       1066.    
   7    1056.       1053.       1052.       1051.       1051.       1052.       1053.       1055.       1056.       6999.    
   8    6999.       1046.       1046.       1046.       1046.       1046.       1048.       1050.       1050.       6999.    
   9    6999.       1039.       1039.       1039.       1040.       1041.       1042.       1043.       1044.       6999.    
  10    6999.       1031.       1032.       1033.       1034.       1035.       1037.       1038.       1039.       1042.    
  11    6999.       1021.       1023.       1027.       1029.       1030.       1032.       1034.       1036.       6999.    
  12    1001.       1009.       1015.       1020.       1023.       1026.       1029.       1030.       1034.       6999.    
  13    994.5      1000.0       1007.       1013.       1019.       1024.       1029.       1034.       1036.       6999.    
  14    6999.       1004.       1009.       1014.       1019.       1024.       1029.       1035.       1039.       6999.    
  15    6999.       6999.       1012.       1015.       1019.       1022.       6999.       6999.       6999.       6999.    

-- READING OC PACKAGE INPUT --

# UZFtest2
# MODFLOW-2005 Example problem documented in:
#   Harbaugh, A.W., 2005, MODFLOW-2005, the U.S. Geological Survey modular ground-water model -- the Ground-Water Flow Process: U.S. Geological Survey Techniques and Methods 6-A16.
#   Harbaugh, A.W., Banta, E.R., Hill, M.C. and McDonald, M.G., 2000, MODFLOW-2000, The U.S. Geological Survey Modular Ground-Water Model - User Guide to Modularization Concepts and the Ground-Water Flow Process: U.S Geological Survey Open-File Report 2000-92, 121 p., https://doi.org/10.3133/ofr200092
#   Niswonger, R.G., Prudic, D.E., and Regan, R.S., 2006, Documentation of the Unsaturated-Zone Flow (UZF1) Package for modeling unsaturated flow between the land surface and the water table with MODFLOW-2005: U.S. Geological Techniques and Methods Book 6, Chapter A19, 62 p.
#
#-----------------------------------------------------------------------------------------------------------------------------------------------------


 OUTPUT CONTROL IS SPECIFIED ONLY AT TIME STEPS FOR WHICH OUTPUT IS DESIRED
 HEADS WILL BE SAVED WITH FORMAT: (10F10.3)           
 SAVED HEADS WILL BE LABELED
 HEAD PRINT FORMAT CODE IS   4    DRAWDOWN PRINT FORMAT CODE IS   0
 HEADS WILL BE SAVED ON UNIT   58    DRAWDOWNS WILL BE SAVED ON UNIT    0  WATER BUDGETs WILL BE SAVED ON UNIT 

 LPF -- LAYER-PROPERTY FLOW PACKAGE, VERSION OWHM
         INPUT READ FROM UNIT    7

-- READING LPF PACKAGE INPUT --

# UZFtest2
# MODFLOW-2005 Example problem documented in:
#   Harbaugh, A.W., 2005, MODFLOW-2005, the U.S. Geological Survey modular ground-water model -- the Ground-Water Flow Process: U.S. Geological Survey Techniques and Methods 6-A16.
#   Harbaugh, A.W., Banta, E.R., Hill, M.C. and McDonald, M.G., 2000, MODFLOW-2000, The U.S. Geological Survey Modular Ground-Water Model - User Guide to Modularization Concepts and the Ground-Water Flow Process: U.S Geological Survey Open-File Report 2000-92, 121 p., https://doi.org/10.3133/ofr200092
#   Niswonger, R.G., Prudic, D.E., and Regan, R.S., 2006, Documentation of the Unsaturated-Zone Flow (UZF1) Package for modeling unsaturated flow between the land surface and the water table with MODFLOW-2005: U.S. Geological Techniques and Methods Book 6, Chapter A19, 62 p.
#
#      -Comments are preceded by a # sign
#
#-----------------------------------------------------------------------------------------------------------------------------------------------------
#Layer-Property Flow Package input for test simulation 2

 HEAD AT CELLS THAT CONVERT TO DRY=  0.00000E+00
 No named parameters

   LAYER FLAGS:
 LAYER       LAYTYP        LAYAVG         CHANI        LAYVKA        LAYWET
 ---------------------------------------------------------------------------
    1             1             0     1.000E+00             0             0

   INTERPRETATION OF LAYER FLAGS:
                        INTERBLOCK     HORIZONTAL    DATA IN
         LAYER TYPE   TRANSMISSIVITY   ANISOTROPY   ARRAY VKA   WETTABILITY
 LAYER      (LAYTYP)      (LAYAVG)       (CHANI)      (LAYVKA)      (LAYWET)
 ---------------------------------------------------------------------------
    1   CONVERTIBLE      HARMONIC     1.000E+00    VERTICAL K  NON-WETTABLE

 WETTING CAPABILITY IS NOT ACTIVE IN ANY LAYER



              HYD. COND. ALONG ROWS FOR LAYER   1
 READING ON UNIT    7 WITH FORMAT: (10F5.0)            

            1           2           3           4           5           6           7           8           9          10
 ........................................................................................................................
   1   0.2000E-02  0.2000E-02   0.000       0.000       0.000       0.000       0.000       0.000       0.000       0.000    
   2   0.4000E-03  0.2000E-02  0.2000E-02   0.000       0.000      0.4000E-03  0.4000E-03  0.4000E-03   0.000       0.000    
   3    0.000      0.4000E-03  0.2000E-02  0.2000E-02  0.4000E-03  0.4000E-03  0.4000E-03  0.4000E-03   0.000       0.000    
   4   0.4000E-03  0.4000E-03  0.4000E-03  0.2000E-02  0.2000E-02  0.2000E-02  0.4000E-03  0.4000E-03  0.4000E-03   0.000    
   5   0.4000E-03  0.4000E-03  0.4000E-03  0.2000E-02  0.2000E-02  0.2000E-02  0.2000E-02  0.2000E-02  0.2000E-02  0.2000E-02
   6   0.4000E-03  0.4000E-03  0.4000E-03  0.2000E-02  0.2000E-02  0.2000E-02  0.2000E-02  0.2000E-02  0.4000E-03  0.4000E-03
   7   0.4000E-03  0.4000E-03  0.4000E-03  0.2000E-02  0.2000E-02  0.2000E-02  0.2000E-02  0.2000E-02  0.4000E-03   0.000    
   8    0.000      0.4000E-03  0.4000E-03  0.2000E-02  0.2000E-02  0.2000E-02  0.2000E-02  0.4000E-03  0.4000E-03   0.000    
   9    0.000      0.4000E-03  0.4000E-03  0.2000E-02  0.2000E-02  0.2000E-02  0.2000E-02  0.4000E-03  0.4000E-03   0.000    
  10    0.000      0.4000E-03  0.4000E-03  0.2000E-02  0.2000E-02  0.2000E-02  0.2000E-02  0.4000E-03  0.4000E-03  0.4000E-03
  11    0.000      0.4000E-03  0.4000E-03  0.2000E-02  0.2000E-02  0.2000E-02  0.2000E-02  0.4000E-03  0.4000E-03   0.000    
  12   0.4000E-03  0.4000E-03  0.2000E-02  0.2000E-02  0.2000E-02  0.2000E-02  0.2000E-02  0.4000E-03  0.4000E-03   0.000    
  13   0.2000E-02  0.2000E-02  0.2000E-02  0.2000E-02  0.2000E-02  0.2000E-02  0.2000E-02  0.2000E-02  0.2000E-02   0.000    
  14    0.000      0.4000E-03  0.4000E-03  0.4000E-03  0.4000E-03  0.4000E-03  0.4000E-03  0.4000E-03  0.2000E-02   0.000    
  15    0.000       0.000      0.4000E-03  0.4000E-03  0.4000E-03  0.4000E-03   0.000       0.000       0.000       0.000    

      VERTICAL HYD. COND. =  1.000000E-06 FOR LAYER   1

         SPECIFIC STORAGE =  1.000000E-06 FOR LAYER   1



                     SPECIFIC YIELD FOR LAYER   1
 READING ON UNIT    7 WITH FORMAT: (10F5.0)            

            1           2           3           4           5           6           7           8           9          10
 ........................................................................................................................
   1   0.2000      0.2000       0.000       0.000       0.000       0.000       0.000       0.000       0.000       0.000    
   2   0.1000      0.2000      0.2000       0.000       0.000      0.1000      0.1000      0.1000       0.000       0.000    
   3    0.000      0.1000      0.2000      0.2000      0.1000      0.1000      0.1000      0.1000       0.000       0.000    
   4   0.1000      0.1000      0.1000      0.2000      0.2000      0.2000      0.1000      0.1000      0.1000       0.000    
   5   0.1000      0.1000      0.1000      0.2000      0.2000      0.2000      0.2000      0.2000      0.2000      0.2000    
   6   0.1000      0.1000      0.1000      0.2000      0.2000      0.2000      0.2000      0.2000      0.1000      0.1000    
   7   0.1000      0.1000      0.1000      0.2000      0.2000      0.2000      0.2000      0.2000      0.1000       0.000    
   8    0.000      0.1000      0.1000      0.2000      0.2000      0.2000      0.2000      0.1000      0.1000       0.000    
   9    0.000      0.1000      0.1000      0.2000      0.2000      0.2000      0.2000      0.1000      0.1000       0.000    
  10    0.000      0.1000      0.1000      0.2000      0.2000      0.2000      0.2000      0.1000      0.1000      0.1000    
  11    0.000      0.1000      0.1000      0.2000      0.2000      0.2000      0.2000      0.1000      0.1000       0.000    
  12   0.1000      0.1000      0.2000      0.2000      0.2000      0.2000      0.2000      0.1000      0.1000       0.000    
  13   0.2000      0.2000      0.2000      0.2000      0.2000      0.2000      0.2000      0.2000      0.2000       0.000    
  14    0.000      0.1000      0.1000      0.1000      0.1000      0.1000      0.1000      0.1000      0.2000       0.000    
  15    0.000       0.000      0.1000      0.1000      0.1000      0.1000       0.000       0.000       0.000       0.000    

-- READING WEL PACKAGE INPUT --

# UZFtest2
# MODFLOW-2005 Example problem documented in:
#   Harbaugh, A.W., 2005, MODFLOW-2005, the U.S. Geological Survey modular ground-water model -- the Ground-Water Flow Process: U.S. Geological Survey Techniques and Methods 6-A16.
#   Harbaugh, A.W., Banta, E.R., Hill, M.C. and McDonald, M.G., 2000, MODFLOW-2000, The U.S. Geological Survey Modular Ground-Water Model - User Guide to Modularization Concepts and the Ground-Water Flow Process: U.S Geological Survey Open-File Report 2000-92, 121 p., https://doi.org/10.3133/ofr200092
#   Niswonger, R.G., Prudic, D.E., and Regan, R.S., 2006, Documentation of the Unsaturated-Zone Flow (UZF1) Package for modeling unsaturated flow between the land surface and the water table with MODFLOW-2005: U.S. Geological Techniques and Methods Book 6, Chapter A19, 62 p.
#
#      -Comments are preceded by a # sign
#
#-----------------------------------------------------------------------------------------------------------------------------------------------------
#Well Package input for test simulation 2


WEL -- WELL PACKAGE, VERSION OWHM INPUT READ FROM UNIT 16

 No named parameters

 NO TABFILE SPECIFIED FOR PACKAGE WEL  


 NO LINEFEEDS ARE SPECIFIED FOR PACKAGE WEL  


MAXIMUM OF 10 ACTIVE WELLS AT ONE TIME

CELL-BY-CELL FLOWS WILL BE PRINTED WHEN ICBCFL NOT 0


0 Well parameters

 GHB -- GENERAL-HEAD BOUNDARY PACKAGE, VERSION OWHM
         INPUT READ FROM UNIT   17

-- READING GHB PACKAGE INPUT --

# UZFtest2
# MODFLOW-2005 Example problem documented in:
#   Harbaugh, A.W., 2005, MODFLOW-2005, the U.S. Geological Survey modular ground-water model -- the Ground-Water Flow Process: U.S. Geological Survey Techniques and Methods 6-A16.
#   Harbaugh, A.W., Banta, E.R., Hill, M.C. and McDonald, M.G., 2000, MODFLOW-2000, The U.S. Geological Survey Modular Ground-Water Model - User Guide to Modularization Concepts and the Ground-Water Flow Process: U.S Geological Survey Open-File Report 2000-92, 121 p., https://doi.org/10.3133/ofr200092
#   Niswonger, R.G., Prudic, D.E., and Regan, R.S., 2006, Documentation of the Unsaturated-Zone Flow (UZF1) Package for modeling unsaturated flow between the land surface and the water table with MODFLOW-2005: U.S. Geological Techniques and Methods Book 6, Chapter A19, 62 p.
#
#      -Comments are preceded by a # sign
#
#-----------------------------------------------------------------------------------------------------------------------------------------------------

 No named parameters

 NO TABFILE SPECIFIED FOR PACKAGE GHB  


 NO LINEFEEDS ARE SPECIFIED FOR PACKAGE GHB  

 CELL-BY-CELL FLOWS WILL BE PRINTED WHEN ICBCFL NOT 0
 MAXIMUM OF      2 ACTIVE GHB CELLS AT ONE TIME


     0 GHB parameters

-- READING SFR PACKAGE INPUT --

# UZFtest2
# MODFLOW-2005 Example problem documented in:
#   Harbaugh, A.W., 2005, MODFLOW-2005, the U.S. Geological Survey modular ground-water model -- the Ground-Water Flow Process: U.S. Geological Survey Techniques and Methods 6-A16.
#   Harbaugh, A.W., Banta, E.R., Hill, M.C. and McDonald, M.G., 2000, MODFLOW-2000, The U.S. Geological Survey Modular Ground-Water Model - User Guide to Modularization Concepts and the Ground-Water Flow Process: U.S Geological Survey Open-File Report 2000-92, 121 p., https://doi.org/10.3133/ofr200092
#   Niswonger, R.G., Prudic, D.E., and Regan, R.S., 2006, Documentation of the Unsaturated-Zone Flow (UZF1) Package for modeling unsaturated flow between the land surface and the water table with MODFLOW-2005: U.S. Geological Techniques and Methods Book 6, Chapter A19, 62 p.
#
#-----------------------------------------------------------------------------------------------------------------------------------------------------
#SFR2 Package input for Test Simulation 2


 SFR7 -- STREAMFLOW ROUTING PACKAGE, VERSION OWHM
         INPUT READ FROM UNIT   15

 NO TABFILE SPECIFIED FOR PACKAGE SFR  


 NO LINEFEEDS ARE SPECIFIED FOR PACKAGE SFR  



 NUMBER OF STREAM REACHES IS   36

 NUMBER OF STREAM SEGMENTS IS    8

 NUMBER OF STREAM PARAMETERS IS    0

 NUMBER OF STREAM SEGMENTS DEFINED USING PARAMETERS IS              0

 MAXIMUM ERROR FOR STREAM LEAKAGE RATES IS  1.00E-06

 CONSTANT FOR MANNINGS EQUATION IS  1.4860E+00

 HEAD_PREDICTOR_FACTOR (HNEW_FACTOR) IS  1.0000E+00



 STREAM OUTPUT WILL BE WRITTEN TO FILE ON UNIT   81


   STREAM NETWORK DESCRIPTION: 

   LAYER    ROW    COL   SEGMENT   REACH     LENGTH
                          NUMBER   NUMBER    IN CELL        
   --------------------------------------------------
      1      1      1       1        1    4.5000E+03
      1      2      2       1        2    7.0000E+03
      1      3      3       1        3    6.0000E+03
      1      3      4       1        4    5.5500E+03
      1      4      5       2        1    6.5000E+03
      1      5      6       2        2    5.0000E+03
      1      6      6       2        3    5.0000E+03
      1      7      6       2        4    5.0000E+03
      1      8      6       2        5    5.0000E+03
      1      3      5       3        1    5.0000E+03
      1      3      6       3        2    5.0000E+03
      1      3      7       3        3    4.5000E+03
      1      4      8       3        4    6.0000E+03
      1      5      8       3        5    5.0000E+03
      1      6      8       3        6    2.0000E+03
      1      5     10       4        1    2.5000E+03
      1      5      9       4        2    5.0000E+03
      1      6      8       4        3    3.5000E+03
      1      6      8       5        1    4.0000E+03
      1      7      7       5        2    5.0000E+03
      1      8      7       5        3    3.5000E+03
      1      8      6       5        4    2.5000E+03
      1      9      6       6        1    5.0000E+03
      1     10      7       6        2    5.0000E+03
      1     11      7       6        3    5.0000E+03
      1     12      7       6        4    5.0000E+03
      1     13      7       6        5    2.0000E+03
      1     14      9       7        1    5.0000E+03
      1     13      8       7        2    5.5000E+03
      1     13      7       7        3    5.0000E+03
      1     13      6       8        1    5.0000E+03
      1     13      5       8        2    5.0000E+03
      1     13      4       8        3    5.0000E+03
      1     13      3       8        4    5.0000E+03
      1     13      2       8        5    5.0000E+03
      1     13      1       8        6    3.0000E+03




 UZF1 -- UNSATURATED FLOW PACKAGE, VERSION OWHM
         INPUT READ FROM UNIT   19

-- READING UZF PACKAGE INPUT --

# UZFtest2
# MODFLOW-2005 Example problem documented in:
#   Harbaugh, A.W., 2005, MODFLOW-2005, the U.S. Geological Survey modular ground-water model -- the Ground-Water Flow Process: U.S. Geological Survey Techniques and Methods 6-A16.
#   Harbaugh, A.W., Banta, E.R., Hill, M.C. and McDonald, M.G., 2000, MODFLOW-2000, The U.S. Geological Survey Modular Ground-Water Model - User Guide to Modularization Concepts and the Ground-Water F
#   Niswonger, R.G., Prudic, D.E., and Regan, R.S., 2006, Documentation of the Unsaturated-Zone Flow (UZF1) Package for modeling unsaturated flow between the land surface and the water table with MODF
#
#      -Comments are preceded by a # sign
#
#-----------------------------------------------------------------------------------------------------------------------------------------------------
#UZF Package input for test simulation 2

 No named parameters



            AREAL EXTENT OF UZ FLOW
 READING ON UNIT   19 WITH FORMAT: (20I4)              

                1           2           3           4           5           6           7           8           9          10
 ............................................................................................................................
   1            1           1           0           0           0           0           0           0           0           0
   2            1           1           1           0           0           1           1           1           0           0
   3            0           1           1           1           1           1           1           1           0           0
   4            1           1           1           1           1           1           1           1           1           0
   5            1           1           1           1           1           1           1           1           1           1
   6            1           1           1           1           1           1           1           1           1           1
   7            1           1           1           1           1           1           1           1           1           0
   8            0           1           1           1           1           1           1           1           1           0
   9            0           1           1           1           1           1           1           1           1           0
  10            0           1           1           1           1           1           1           1           1           1
  11            0           1           1           1           1           1           1           1           1           0
  12            1           1           1           1           1           1           1           1           1           0
  13            1           1           1           1           1           1           1           1           1           0
  14            0           1           1           1           1           1           1           1           1           0
  15            0           0           1           1           1           1           0           0           0           0
 OPTION 1 -- RECHARGE IN UZF TO TOP LAYER ONLY 



            ROUTING OVERLAND RUNOFF
 READING ON UNIT   19 WITH FORMAT: (20I4)              

                1           2           3           4           5           6           7           8           9          10
 ............................................................................................................................
   1            1           1           0           0           0           0           0           0           0           0
   2            1           1           1           0           0           3           3           3           0           0
   3            0           1           1           1           3           3           3           3           0           0
   4            8           8           2           2           2           2           2           3           3           0
   5            8           8           8           8           2           2           2           3           4           4
   6            8           8           8           8           8           2           2           4           4           4
   7            8           8           8           8           8           2           5           5           5           0
   8            0           8           8           8           8           2           5           5           5           0
   9            0           8           8           8           8           6           6           6           6           0
  10            0           8           8           8           8           6           6           6           6           6
  11            0           8           8           8           8           8           6           6           7           0
  12            8           8           8           8           8           8           6           7           7           0
  13            8           8           8           8           8           8           7           7           7           0
  14            0           8           8           8           8           8           7           7           7           0
  15            0           0           8           8           8           8           0           0           0           0



               SATURATED VERTICAL K
 READING ON UNIT   19 WITH FORMAT: (10F4.0)            

            1           2           3           4           5           6           7           8           9          10
 ........................................................................................................................
   1   0.1000E-05  0.1000E-05   0.000       0.000       0.000       0.000       0.000       0.000       0.000       0.000    
   2   0.1000E-05  0.1000E-05  0.1000E-05   0.000       0.000      0.1000E-05  0.1000E-05  0.1000E-05   0.000       0.000    
   3    0.000      0.1000E-05  0.1000E-05  0.1000E-05  0.1000E-05  0.1000E-05  0.1000E-05  0.1000E-05   0.000       0.000    
   4   0.1000E-05  0.1000E-05  0.1000E-05  0.1000E-05  0.1000E-05  0.1000E-05  0.1000E-05  0.1000E-05  0.1000E-05   0.000    
   5   0.1000E-05  0.1000E-05  0.1000E-05  0.1000E-05  0.1000E-05  0.1000E-05  0.1000E-05  0.1000E-05  0.1000E-05  0.1000E-05
   6   0.1000E-05  0.1000E-05  0.1000E-05  0.1000E-05  0.1000E-05  0.1000E-05  0.1000E-05  0.1000E-05  0.1000E-05  0.1000E-05
   7   0.1000E-05  0.1000E-05  0.1000E-05  0.1000E-05  0.1000E-05  0.1000E-05  0.1000E-05  0.1000E-05  0.1000E-05   0.000    
   8    0.000      0.1000E-05  0.1000E-05  0.1000E-05  0.1000E-05  0.1000E-05  0.1000E-05  0.1000E-05  0.1000E-05   0.000    
   9    0.000      0.1000E-05  0.1000E-05  0.1000E-05  0.1000E-05  0.1000E-05  0.1000E-05  0.1000E-05  0.1000E-05   0.000    
  10    0.000      0.1000E-05  0.1000E-05  0.1000E-05  0.1000E-05  0.1000E-05  0.1000E-05  0.1000E-05  0.1000E-05  0.1000E-05
  11    0.000      0.1000E-05  0.1000E-05  0.1000E-05  0.1000E-05  0.1000E-05  0.1000E-05  0.1000E-05  0.1000E-05   0.000    
  12   0.1000E-05  0.1000E-05  0.1000E-05  0.1000E-05  0.1000E-05  0.1000E-05  0.1000E-05  0.1000E-05  0.1000E-05   0.000    
  13   0.1000E-05  0.1000E-05  0.1000E-05  0.1000E-05  0.1000E-05  0.1000E-05  0.1000E-05  0.1000E-05  0.1000E-05   0.000    
  14    0.000      0.1000E-05  0.1000E-05  0.1000E-05  0.1000E-05  0.1000E-05  0.1000E-05  0.1000E-05  0.1000E-05   0.000    
  15    0.000       0.000      0.1000E-05  0.1000E-05  0.1000E-05  0.1000E-05   0.000       0.000       0.000       0.000    

     BROOKS-COREY EPSILON =   3.50000    

  SATURATED WATER CONTENT =  0.300000    

UNSATURATED FLOW RESULTS WILL BE PRINTED TO SEPARATE FILES FOR SELECTED MODEL CELLS, AND TIME STEPS AS DEFINED BY OUTPUT CONTROL PACKAGE 

SELECTED MODEL CELLS ARE: 
 ROW NUMBER  COLUMN NUMBER  FORTRAN UNIT NUMBER  OUTPUT OPTION


       3             6                 65                 1
       6             3                 66                 2
      10             5                 67                 3
       0             0                 68                 4

-- READING GAG PACKAGE INPUT --

# UZFtest2
# MODFLOW-2005 Example problem documented in:
#   Harbaugh, A.W., 2005, MODFLOW-2005, the U.S. Geological Survey modular ground-water model -- the Ground-Water Flow Process: U.S. Geological Survey Techniques and Methods 6-A16.
#   Harbaugh, A.W., Banta, E.R., Hill, M.C. and McDonald, M.G., 2000, MODFLOW-2000, The U.S. Geological Survey Modular Ground-Water Model - User Guide to Modularization Concepts and the Ground-Water Flow Process: U.S Geological Survey Open-File Report 2000
#   Niswonger, R.G., Prudic, D.E., and Regan, R.S., 2006, Documentation of the Unsaturated-Zone Flow (UZF1) Package for modeling unsaturated flow between the land surface and the water table with MODFLOW-2005: U.S. Geological Techniques and Methods Book 6,
#
#      -Comments are preceded by a # sign
#
#-----------------------------------------------------------------------------------------------------------------------------------------------------




   9 GAGING STATIONS WERE SPECIFIED.
     (Lakes are identified by a negative value of the Lake Number)
     RECORDS WILL BE WRITTEN TO SEPARATE OUTPUT FILES REPRESENTED BY FOLLOWING UNIT NUMBERS:

 Stream Gages:
  GAGE #   SEGMENT   REACH   UNIT   OUTTYPE
       1       1       4      83       1
       2       2       3      84       1
       3       3       5      85       1
       4       4       3      86       1
       5       5       4      87       4
       6       6       5      88       4
       7       7       3      89       4
       8       8       6      90       4
       9       3       1      91       5





 SIP -- STRONGLY-IMPLICIT PROCEDURE SOLUTION PACKAGE
                    VERSION OWHM INPUT READ FROM UNIT   13

-- READING SIP PACKAGE INPUT --

# UZFtest2
# MODFLOW-2005 Example problem documented in:
#   Harbaugh, A.W., 2005, MODFLOW-2005, the U.S. Geological Survey modular ground-water model -- the Ground-Water Flow Process: U.S. Geological Survey Techniques and Methods 6-A16.
#   Harbaugh, A.W., Banta, E.R., Hill, M.C. and McDonald, M.G., 2000, MODFLOW-2000, The U.S. Geological Survey Modular Ground-Water Model - User Guide to Modularization Concepts and the Ground-Water Flow Process: U.S Geological Survey Open-File Report 2000-92, 121 p., https://doi.org/10.3133/ofr200092
#   Niswonger, R.G., Prudic, D.E., and Regan, R.S., 2006, Documentation of the Unsaturated-Zone Flow (UZF1) Package for modeling unsaturated flow between the land surface and the water table with MODFLOW-2005: U.S. Geological Techniques and Methods Book 6, Chapter A19, 62 p.
#
#      -Comments are preceded by a # sign
#
#-----------------------------------------------------------------------------------------------------------------------------------------------------

 MAXIMUM OF 300 ITERATIONS ALLOWED FOR CLOSURE
  5 ITERATION PARAMETERS

          SOLUTION BY THE STRONGLY IMPLICIT PROCEDURE
          -------------------------------------------
 MAXIMUM ITERATIONS ALLOWED FOR CLOSURE =      300
                 ACCELERATION PARAMETER =    0.80000    
      HEAD CHANGE CRITERION FOR CLOSURE =    0.20000E-03
      SIP HEAD CHANGE PRINTOUT INTERVAL =        1

     CALCULATE ITERATION PARAMETERS FROM MODEL CALCULATED WSEED


########################################################################################################

                           WARNING_MESSAGE

         THE FOLLOWING COMMENTS WERE PASSED TO THE WARNING ROUTINE

THE DESRIPTION OF THE WARNING IS:

DIS PACKAGE: THE GROUND SURFACE ELEVATION WAS NOT SPECIFIED WITH THE KEYWORD "SURFACE_ELEVATION"

BEFORE LOADING THE "TOP" ARRAY FOR LAYER 1
NOR WAS IT DEFINED WITH ANOTHER PACKAGE   (e.g. FMPs GLOBAL DIMENSION KEYWORD "SURFACE_ELEVATION")

OneWater WILL SET THE GROUND SURFACE ELEVATION (GSE)
TO THE TOP ELEVATION OF THE UPPER MOST ACTIVE CELL OR THE DIS TOP OF LAY1.

NOTE THAT SFR DOES USE GSE FOR ALL DIVERSION SEGMENTS
   WHEN "IRDFLG" IS SET TO 2 or -2.

########################################################################################################



1
                            STRESS PERIOD NO.      1, LENGTH =   2628000.    
                            -----------------------------------------------

                              NUMBER OF TIME STEPS =     1

                               MULTIPLIER FOR DELT =     1.000

                            INITIAL TIME STEP SIZE =   2628000.    

PARAMETERS HAVE BEEN USED IN PACKAGES

THE CURRENT STORAGE FOR PARAMETERS IS: 
No. PARAMETER=         0 WITH MAX STORAGE (MXPAR)  OF      2000
No. CLUSTERS =         0 WITH MAX STORAGE (MXCLST) OF   2000000
No. INSTANCES=         0 WITH MAX STORAGE (MXINST) OF     50000

YOU CAN INCREASE/DECREASE STORAGE WITH BAS OPTION:
MAXPARAM  MXPAR  MXCLST MXINST

FYI, YOU CAN REDUCE RAM USUAGE WITH BAS OPTION
(NOTE THE THREE NUMBERS ARE A MINUMUM SIZE):
   MAXPARAM          1         1         1


 WEL PACKAGE STRESS PERIOD INFORMATION [BEFORE APPLICATION OF TABFILES]

 WELL NO.  LAYER   ROW   COL   STRESS RATE         
 --------------------------------------------------
      1      1      6      4  -2.0000000    
      2      1      6      5  -2.0000000    
      3      1      7      4  -2.0000000    
      4      1      7      5  -2.0000000    
      5      1      8      4  -2.0000000    
      6      1      8      5  -2.0000000    
      7      1      9      4  -2.0000000    
      8      1      9      5  -2.0000000    
      9      1     10      4  -2.0000000    
     10      1     10      5  -2.0000000    

10 WELLS

 GHB PACKAGE STRESS PERIOD INFORMATION [BEFORE APPLICATION OF TABFILES]

 BOUND. NO. LAYER   ROW   COL     BHEAD      CONDUCTANCE         
 ----------------------------------------------------------------
      1      1     13      1   988.00000      0.38000000E-01
      2      1     14      9   1045.0000      0.38000000E-01

      2 GHB CELLS



 CLASSIFICATION & COUNT OF STREAM SEGMENTS BASED ON SOURCE OF INFLOW:

                HEADWATER     DIVERSION     RECEIVES TRIBUTARY FLOW
                ---------     ---------     -----------------------
                     3              1               4



                    INPUT DATA FOR EACH STREAM SEGMENT
 ---------------------------------------------------------------------------------------------

 SEGMENT    SEG.     INFLOW   OVERLAND   STREAM    STREAM   ICALC  OUTFLOW  DIVERSION PRIORITY
    NO.    LENGTH     RATE     RUNOFF      ET       PPT.    METH.  TO SEG.  FROM SEG.    NO.

      1  2.305E+04 2.500E+01 0.000E+00 0.000E+00 0.000E+00    4        2        0        0
      2  2.650E+04 0.000E+00 0.000E+00 0.000E+00 0.000E+00    1        6        0        0
      3  2.750E+04 1.000E+01 0.000E+00 0.000E+00 0.000E+00    0        5        1        0
      4  1.100E+04 1.000E+01 0.000E+00 0.000E+00 0.000E+00    1        5        0        0
      5  1.500E+04 0.000E+00 0.000E+00 0.000E+00 0.000E+00    3        6        0        0
      6  2.200E+04 0.000E+00 0.000E+00 0.000E+00 0.000E+00    1        8        0        0
      7  1.550E+04 1.500E+02 0.000E+00 0.000E+00 0.000E+00    2        8        0        0
      8  2.800E+04 0.000E+00 0.000E+00 0.000E+00 0.000E+00    2        0        0        0


         STREAMBED PROPERTIES AND STREAM DIMENSIONS

 SEGMENT     BED HYD. COND.      BED THICKNESS     ELEV.-TOP OF BED     WIDTH OF STREAM     DEPTH OF STREAM    STREAM ROUGHNESS
    No.     UPPER     LOWER     UPPER     LOWER     UPPER     LOWER     UPPER     LOWER     UPPER     LOWER   CHANNEL      BANK

     1  3.000E-05 3.000E-05 3.000E+00 3.000E+00 1.095E+03 1.075E+03
     2  3.000E-05 3.000E-05 3.000E+00 3.000E+00 1.075E+03 1.050E+03 1.200E+01 1.200E+01                     3.000E-02
     3  3.000E-05 3.000E-05 2.000E+00 2.000E+00 1.075E+03 1.060E+03 1.000E+01 6.000E+00 2.000E+00 1.000E+00
     4  3.000E-05 3.000E-05 3.000E+00 3.000E+00 1.080E+03 1.060E+03 1.000E+01 1.000E+01                     3.000E-02
     5  3.000E-05 3.000E-05 3.000E+00 3.000E+00 1.060E+03 1.045E+03
     6  3.000E-05 3.000E-05 3.000E+00 3.000E+00 1.045E+03 1.025E+03 1.200E+01 1.200E+01                     3.000E-02
     7  6.000E-05 6.000E-05 3.000E+00 3.000E+00 1.040E+03 1.025E+03                                         2.500E-02 4.500E-02
     8  6.000E-05 6.000E-05 3.000E+00 3.000E+00 1.025E+03 9.900E+02                                         2.500E-02 4.500E-02

  EIGHT POINT CROSS-SECTION DATA FOR SEGMENTS WITH ICALC = 2
    X VALUES X VALUES START FROM LEFT SIDE LOOKING DOWNSTREAM

     SEGMENT NO.        X1        X2        X3        X4        X5        X6        X7        X8
            7      0.000E+00 1.000E+01 8.000E+01 1.000E+02 1.500E+02 1.700E+02 2.400E+02 2.500E+02
            8      0.000E+00 1.000E+01 8.000E+01 1.000E+02 1.500E+02 1.700E+02 2.400E+02 2.500E+02

    Z VALUES ARE RELATIVE TO STREAMBED ELEVATION

     SEGMENT NO.          Z1        Z2        Z3        Z4        Z5        Z6        Z7        Z8
            7      2.000E+01 1.300E+01 1.000E+01 2.000E+00 0.000E+00 1.000E+01 1.300E+01 2.000E+01
            8      2.500E+01 1.700E+01 1.300E+01 4.000E+00 0.000E+00 1.000E+01 1.600E+01 2.000E+01

 STREAMFLOW RELATION WITH DEPTH IS BASED ON EQUATION Q = CDPTH*(DEPTH)**FDPTH
 STREAMFLOW RELATION WITH WIDTH IS BASED ON EQUATION Q = AWDTH*(WIDTH)**BWDTH

 SEGMENT NO.      CDPTH     FDPTH    AWDTH     BWDTH

          5 3.000E-01 3.500E-01 3.800E+00 6.000E-01

 STREAMFLOW RELATION WITH DEPTH AND WIDTH IS BASED ON TABULATED VALUES

  SEGMENT NO.   STREAMFLOW       DEPTH       WIDTH

          1        5.0000E-01      2.5000E-01      3.0000E+00
          1        1.0000E+00      4.0000E-01      3.5000E+00
          1        2.0000E+00      5.5000E-01      4.2000E+00
          1        4.0000E+00      7.0000E-01      5.3000E+00
          1        7.0000E+00      8.0000E-01      7.0000E+00
          1        1.0000E+01      9.0000E-01      8.5000E+00
          1        2.0000E+01      1.1000E+00      1.2000E+01
          1        3.0000E+01      1.2500E+00      1.4000E+01
          1        5.0000E+01      1.4000E+00      1.7000E+01
          1        7.5000E+01      1.7000E+00      2.0000E+01
          1        1.0000E+02      1.8000E+00      2.2000E+01



            AREAL INFILTRATION RATE
 READING ON UNIT   19 WITH FORMAT: (10F4.0)            

            1           2           3           4           5           6           7           8           9          10
 ........................................................................................................................
   1   0.1000E-08  0.2000E-08   0.000       0.000       0.000       0.000       0.000       0.000       0.000       0.000    
   2   0.2000E-08  0.1000E-08  0.2000E-08   0.000       0.000      0.8000E-08  0.8000E-08  0.5000E-08   0.000       0.000    
   3    0.000      0.5000E-08  0.1000E-08  0.1000E-08  0.8000E-08  0.8000E-08  0.5000E-08  0.5000E-08   0.000       0.000    
   4   0.8000E-08  0.5000E-08  0.1000E-08  0.1000E-08  0.1000E-08  0.1000E-08  0.1000E-08  0.1000E-08  0.2000E-08   0.000    
   5   0.8000E-08  0.5000E-08  0.1000E-08  0.1000E-08  0.1000E-08  0.1000E-08  0.1000E-08  0.1000E-08  0.1000E-08  0.1000E-08
   6   0.8000E-08  0.5000E-08  0.5000E-08  0.2000E-08  0.2000E-08  0.1000E-08  0.1000E-08  0.1000E-08  0.1000E-08  0.5000E-08
   7   0.8000E-08  0.5000E-08  0.5000E-08  0.2000E-08  0.2000E-08  0.1000E-08  0.1000E-08  0.2000E-08  0.2000E-08   0.000    
   8    0.000      0.5000E-08  0.5000E-08  0.2000E-08  0.2000E-08  0.1000E-08  0.1000E-08  0.2000E-08  0.5000E-08   0.000    
   9    0.000      0.5000E-08  0.5000E-08  0.2000E-08  0.2000E-08  0.1000E-08  0.1000E-08  0.2000E-08  0.5000E-08   0.000    
  10    0.000      0.5000E-08  0.5000E-08  0.2000E-08  0.2000E-08  0.1000E-08  0.1000E-08  0.2000E-08  0.5000E-08  0.8000E-08
  11    0.000      0.1000E-08  0.1000E-08  0.1000E-08  0.1000E-08  0.1000E-08  0.1000E-08  0.2000E-08  0.5000E-08   0.000    
  12   0.1000E-08  0.1000E-08  0.1000E-08  0.1000E-08  0.1000E-08  0.1000E-08  0.1000E-08  0.1000E-08  0.2000E-08   0.000    
  13   0.1000E-08  0.1000E-08  0.2000E-08  0.2000E-08  0.2000E-08  0.2000E-08  0.2000E-08  0.1000E-08  0.1000E-08   0.000    
  14    0.000      0.2000E-08  0.5000E-08  0.5000E-08  0.5000E-08  0.5000E-08  0.5000E-08  0.2000E-08  0.1000E-08   0.000    
  15    0.000       0.000      0.8000E-08  0.8000E-08  0.8000E-08  0.8000E-08   0.000       0.000       0.000       0.000    

                  ET RATE =  5.000000E-08

      ET EXTINCTION DEPTH =   15.0000    



           EXTINCTION WATER CONTENT
 READING ON UNIT   19 WITH FORMAT: (10F4.0)            

            1           2           3           4           5           6           7           8           9          10
 ........................................................................................................................
   1   0.1000      0.1000       0.000       0.000       0.000       0.000       0.000       0.000       0.000       0.000    
   2   0.2000      0.1000      0.1000       0.000       0.000      0.2000      0.2000      0.2000       0.000       0.000    
   3    0.000      0.2000      0.1000      0.1000      0.2000      0.2000      0.2000      0.2000       0.000       0.000    
   4   0.2000      0.2000      0.2000      0.1000      0.1000      0.1000      0.2000      0.2000      0.2000      0.1000    
   5   0.2000      0.2000      0.2000      0.1000      0.1000      0.1000      0.1000      0.1000      0.1000      0.1000    
   6   0.2000      0.2000      0.2000      0.1000      0.1000      0.1000      0.1000      0.1000      0.2000      0.2000    
   7   0.2000      0.2000      0.2000      0.1000      0.1000      0.1000      0.1000      0.1000      0.2000       0.000    
   8    0.000      0.2000      0.2000      0.1000      0.1000      0.1000      0.1000      0.2000      0.2000       0.000    
   9    0.000      0.2000      0.2000      0.1000      0.1000      0.1000      0.1000      0.2000      0.2000       0.000    
  10    0.000      0.2000      0.2000      0.1000      0.1000      0.1000      0.1000      0.2000      0.2000      0.2000    
  11    0.000      0.2000      0.2000      0.1000      0.1000      0.1000      0.1000      0.2000      0.2000       0.000    
  12   0.2000      0.2000      0.1000      0.1000      0.1000      0.1000      0.1000      0.2000      0.2000       0.000    
  13   0.1000      0.1000      0.1000      0.1000      0.1000      0.1000      0.1000      0.1000      0.1000       0.000    
  14    0.000      0.2000      0.2000      0.2000      0.2000      0.2000      0.2000      0.2000      0.1000       0.000    
  15    0.000       0.000      0.2000      0.2000      0.2000      0.2000       0.000       0.000       0.000       0.000    
 
 SOLVING FOR HEAD 

 AVERAGE SEED = 0.00926840
 MINIMUM SEED = 0.00187768

     5 ITERATION PARAMETERS CALCULATED FROM AVERAGE SEED:

  0.000000E+00 0.689722E+00 0.903727E+00 0.970129E+00 0.990732E+00

    30 ITERATIONS FOR TIME STEP   1 IN STRESS PERIOD    1

 MAXIMUM HEAD CHANGE FOR EACH ITERATION:

    HEAD CHANGE   HEAD CHANGE   HEAD CHANGE   HEAD CHANGE   HEAD CHANGE
  LAYER,ROW,COL LAYER,ROW,COL LAYER,ROW,COL LAYER,ROW,COL LAYER,ROW,COL
 ----------------------------------------------------------------------
      5.187        -1.627        -1.328        -1.137        -1.207    
  (  1, 15,  3) (  1,  8,  4) (  1,  6,  4) (  1,  7,  2) (  1, 10,  7)
    -0.4943       -0.1953       -0.2020       -0.2793       -0.1413    
  (  1, 10, 10) (  1,  9,  9) (  1,  8,  7) (  1,  7,  6) (  1, 10,  7)
    -0.1806       -0.3592E-01   -0.4329E-01   -0.4095E-01   -0.3820E-01
  (  1, 10, 10) (  1, 10, 10) (  1,  6,  5) (  1,  7,  1) (  1,  6,  6)
    -0.3408E-01   -0.8377E-02   -0.6782E-02   -0.9081E-02   -0.4933E-02
  (  1, 10, 10) (  1,  9,  9) (  1,  8,  5) (  1,  6,  1) (  1,  8,  2)
    -0.6397E-02   -0.1278E-02   -0.1625E-02   -0.1532E-02   -0.1449E-02
  (  1, 10, 10) (  1, 10, 10) (  1,  6,  5) (  1,  7,  1) (  1,  6,  6)
    -0.1245E-02   -0.3127E-03   -0.2565E-03   -0.3438E-03   -0.1863E-03
  (  1, 10, 10) (  1,  9,  9) (  1,  8,  5) (  1,  6,  1) (  1,  8,  2)


 OUTPUT CONTROL FOR STRESS PERIOD      1   TIME STEP     1
    PRINT BUDGET
    SAVE BUDGET

           WELLS   PERIOD 1   STEP 1
WELL          1   LAYER          1   ROW          6   COL          4   RATE -2.0
WELL          2   LAYER          1   ROW          6   COL          5   RATE -2.0
WELL          3   LAYER          1   ROW          7   COL          4   RATE -2.0
WELL          4   LAYER          1   ROW          7   COL          5   RATE -2.0
WELL          5   LAYER          1   ROW          8   COL          4   RATE -2.0
WELL          6   LAYER          1   ROW          8   COL          5   RATE -2.0
WELL          7   LAYER          1   ROW          9   COL          4   RATE -2.0
WELL          8   LAYER          1   ROW          9   COL          5   RATE -2.0
WELL          9   LAYER          1   ROW         10   COL          4   RATE -2.0
WELL         10   LAYER          1   ROW         10   COL          5   RATE -2.0

  HEAD DEP BOUNDS   PERIOD    1   STEP   1
 BOUNDARY      1   LAYER   1   ROW    13   COL     1   RATE   -0.261185       COND    0.380000E-01
 BOUNDARY      2   LAYER   1   ROW    14   COL     9   RATE    0.209945       COND    0.380000E-01



 STREAM LISTING     PERIOD      1   STEP        1

 LAYER ROW COL. STREAM  RCH.  FLOW INTO     FLOW TO   FLOW OUT OF   OVRLND.     DIRECT     STREAM       STREAM     STREAM     STREAM   STREAMBED  STREAMBED  STREAMBED
                SEG.NO.  NO.  STRM. RCH.    AQUIFER    STRM. RCH.    RUNOFF     PRECIP       ET          HEAD       DEPTH      WIDTH   CONDCTNC.   GRADIENT  ELEVATION

   1    1    1     1     1    2.5000E+01  1.0782E+00   2.3922E+01  0.000E+00  0.000E+00  0.000E+00  1.09422E+03  1.172E+00  1.295E+01  5.830E-01  6.165E-01  1.093E+03
   1    2    2     1     2    2.3922E+01  3.1526E+00   2.0769E+01  0.000E+00  0.000E+00  0.000E+00  1.08920E+03  1.139E+00  1.252E+01  8.762E-01  1.199E+00  1.088E+03
   1    3    3     1     3    2.0769E+01  2.8941E+00   1.7875E+01  0.000E+00  0.000E+00  0.000E+00  1.08351E+03  1.089E+00  1.180E+01  7.078E-01  1.363E+00  1.082E+03
   1    3    4     1     4    1.7875E+01  2.4577E+00   1.5417E+01  0.000E+00  0.000E+00  0.000E+00  1.07845E+03  1.043E+00  1.095E+01  6.079E-01  1.348E+00  1.077E+03
   1    4    5     2     1    5.4174E+00  2.6578E+00   2.7596E+00  0.000E+00  0.000E+00  0.000E+00  1.07234E+03  4.075E-01  1.200E+01  7.800E-01  1.136E+00  1.072E+03
   1    5    6     2     2    2.7596E+00  1.9487E+00   8.1089E-01  0.000E+00  0.000E+00  0.000E+00  1.06676E+03  2.478E-01  1.200E+01  6.000E-01  1.083E+00  1.067E+03
   1    6    6     2     3    8.1089E-01  8.1089E-01   0.0000E+00  0.000E+00  0.000E+00  0.000E+00  1.06183E+03  3.473E-02  1.200E+01  6.000E-01  1.012E+00  1.062E+03
   1    7    6     2     4    0.0000E+00  0.0000E+00   0.0000E+00  0.000E+00  0.000E+00  0.000E+00  1.05708E+03  0.000E+00  1.200E+01  6.000E-01  1.000E+00  1.057E+03
   1    8    6     2     5    0.0000E+00  0.0000E+00   0.0000E+00  0.000E+00  0.000E+00  0.000E+00  1.05236E+03  0.000E+00  1.200E+01  6.000E-01  1.000E+00  1.052E+03
   1    3    5     3     1    1.0000E+01  2.8252E+00   7.1748E+00  0.000E+00  0.000E+00  0.000E+00  1.07555E+03  1.909E+00  9.636E+00  7.227E-01  1.955E+00  1.074E+03
   1    3    6     3     2    7.1748E+00  2.2827E+00   4.8921E+00  0.000E+00  0.000E+00  0.000E+00  1.07264E+03  1.727E+00  8.909E+00  6.682E-01  1.708E+00  1.071E+03
   1    3    7     3     3    4.8921E+00  1.1634E+00   3.7287E+00  0.000E+00  0.000E+00  0.000E+00  1.06987E+03  1.555E+00  8.218E+00  5.547E-01  1.049E+00  1.068E+03
   1    4    8     3     4    3.7287E+00  1.6871E+00   2.0416E+00  0.000E+00  0.000E+00  0.000E+00  1.06682E+03  1.364E+00  7.455E+00  6.709E-01  1.257E+00  1.065E+03
   1    5    8     3     5    2.0416E+00  1.5789E+00   4.6265E-01  0.000E+00  0.000E+00  0.000E+00  1.06362E+03  1.164E+00  6.655E+00  4.991E-01  1.582E+00  1.062E+03
   1    6    8     3     6    4.6265E-01  4.6265E-01   0.0000E+00  0.000E+00  0.000E+00  0.000E+00  1.06158E+03  0.000E+00  6.145E+00  1.844E-01  1.518E+00  1.061E+03
   1    5   10     4     1    1.0000E+01  9.0525E-01   9.0947E+00  0.000E+00  0.000E+00  0.000E+00  1.07835E+03  6.210E-01  1.000E+01  2.500E-01  1.207E+00  1.078E+03
   1    5    9     4     2    9.0947E+00  1.7835E+00   7.3113E+00  0.000E+00  0.000E+00  0.000E+00  1.07148E+03  5.670E-01  1.000E+01  5.000E-01  1.189E+00  1.071E+03
   1    6    8     4     3    7.3113E+00  1.2257E+00   6.0855E+00  0.000E+00  0.000E+00  0.000E+00  1.06368E+03  5.021E-01  1.000E+01  3.500E-01  1.167E+00  1.063E+03
   1    6    8     5     1    6.0855E+00  1.0332E+00   5.0524E+00  0.000E+00  0.000E+00  0.000E+00  1.05855E+03  5.472E-01  1.065E+01  4.259E-01  8.086E-01  1.058E+03
   1    7    7     5     2    5.0524E+00  1.5857E+00   3.4667E+00  0.000E+00  0.000E+00  0.000E+00  1.05400E+03  4.982E-01  9.066E+00  4.533E-01  1.166E+00  1.054E+03
   1    8    7     5     3    3.4667E+00  8.8888E-01   2.5778E+00  0.000E+00  0.000E+00  0.000E+00  1.04969E+03  4.418E-01  7.379E+00  2.583E-01  1.147E+00  1.049E+03
   1    8    6     5     4    2.5778E+00  5.3424E-01   2.0436E+00  0.000E+00  0.000E+00  0.000E+00  1.04665E+03  4.022E-01  6.281E+00  1.570E-01  1.134E+00  1.046E+03
   1    9    6     6     1    2.0436E+00  1.9117E+00   1.3186E-01  0.000E+00  0.000E+00  0.000E+00  1.04291E+03  1.862E-01  1.200E+01  6.000E-01  1.062E+00  1.043E+03
   1   10    7     6     2    1.3186E-01  1.3186E-01   0.0000E+00  0.000E+00  0.000E+00  0.000E+00  1.03819E+03  1.181E-02  1.200E+01  6.000E-01  1.004E+00  1.038E+03
   1   11    7     6     3    0.0000E+00  0.0000E+00   0.0000E+00  0.000E+00  0.000E+00  0.000E+00  1.03364E+03  0.000E+00  1.200E+01  6.000E-01  1.000E+00  1.034E+03
   1   12    7     6     4    0.0000E+00  0.0000E+00   0.0000E+00  0.000E+00  0.000E+00  0.000E+00  1.02909E+03  0.000E+00  1.200E+01  6.000E-01  4.154E-01  1.029E+03
   1   13    7     6     5    0.0000E+00 -7.6282E-01   7.6282E-01  0.000E+00  0.000E+00  0.000E+00  1.02601E+03  9.927E-02  1.200E+01  2.400E-01 -1.059E+00  1.026E+03
   1   14    9     7     1    1.5000E+02  2.1863E+00   1.4781E+02  0.000E+00  0.000E+00  0.000E+00  1.03987E+03  2.285E+00  5.528E+01  5.592E+00  1.303E-01  1.038E+03
   1   13    8     7     2    1.4781E+02  3.2077E+00   1.4461E+02  0.000E+00  0.000E+00  0.000E+00  1.03477E+03  2.271E+00  5.522E+01  6.143E+00  1.740E-01  1.032E+03
   1   13    7     7     3    1.4461E+02  2.7203E+00   1.4189E+02  0.000E+00  0.000E+00  0.000E+00  1.02967E+03  2.255E+00  5.515E+01  5.577E+00  1.626E-01  1.027E+03
   1   13    6     8     1    1.4265E+02  1.0423E+00   1.4161E+02  0.000E+00  0.000E+00  0.000E+00  1.02464E+03  2.760E+00  4.003E+01  4.079E+00  8.518E-02  1.022E+03
   1   13    5     8     2    1.4161E+02 -1.7240E+00   1.4333E+02  0.000E+00  0.000E+00  0.000E+00  1.01839E+03  2.763E+00  4.006E+01  4.083E+00 -1.408E-01  1.016E+03
   1   13    4     8     3    1.4333E+02 -3.4966E+00   1.4683E+02  0.000E+00  0.000E+00  0.000E+00  1.01216E+03  2.782E+00  4.034E+01  4.110E+00 -2.836E-01  1.009E+03
   1   13    3     8     4    1.4683E+02 -3.8389E+00   1.5067E+02  0.000E+00  0.000E+00  0.000E+00  1.00593E+03  2.808E+00  4.072E+01  4.149E+00 -3.084E-01  1.003E+03
   1   13    2     8     5    1.5067E+02 -1.9161E+00   1.5258E+02  0.000E+00  0.000E+00  0.000E+00  9.99703E+02  2.828E+00  4.101E+01  4.179E+00 -1.528E-01  9.969E+02
   1   13    1     8     6    1.5258E+02 -4.0721E-01   1.5299E+02  0.000E+00  0.000E+00  0.000E+00  9.94711E+02  2.836E+00  4.113E+01  2.515E+00 -5.398E-02  9.919E+02



 UBDSV3 SAVING "           GW ET" ON UNIT 61 AT TIME STEP 1, STRESS PERIOD 1
 UBDSV3 SAVING "    UZF RECHARGE" ON UNIT 61 AT TIME STEP 1, STRESS PERIOD 1
 UBDSV3 SAVING " SURFACE LEAKAGE" ON UNIT 61 AT TIME STEP 1, STRESS PERIOD 1
 UBDSV3 SAVING "       HORT+DUNN" ON UNIT 61 AT TIME STEP 1, STRESS PERIOD 1
 UBDSV3 SAVING "  STORAGE CHANGE" ON UNIT 61 AT TIME STEP 1, STRESS PERIOD 1


UNSATURATED ZONE PACKAGE VOLUMETRIC BUDGET FOR  TIME STEP     1 STRESS PERIOD    1
  ------------------------------------------------------------------------------



     CUMULATIVE VOLUMES      L**3       RATES FOR THIS TIME STEP      L**3/T
     ------------------                 ------------------------

           IN:                                      IN:
           ---                                      ---
        INFILTRATION =       22272300.0          INFILTRATION =        8.4750000

          OUT:                                     OUT:
          ----                                     ----
              UZF ET =              0.0                UZF ET =              0.0
        UZF RECHARGE =       22272300.0          UZF RECHARGE =        8.4750000

            IN - OUT =              0.0              IN - OUT =              0.0

          STORAGE:                                 STORAGE:
          --------                                 --------
      STORAGE CHANGE =              0.0        STORAGE CHANGE =              0.0

 PERCENT DISCREPANCY =           0.00     PERCENT DISCREPANCY =           0.00




 PERCENT DISCREPANCY IS DIFFERENCE BETWEEN IN-OUT MINUS CHANGE IN STORAGE
 DIVIDED BY THE AVERAGE OF IN AND OUT TIMES 100






  -------------------------------------------------------------------------------------
  VOLUMETRIC BUDGET FOR ENTIRE MODEL AT END OF TIME STEP    1 IN STRESS PERIOD      1
  -------------------------------------------------------------------------------------

     CUMULATIVE VOLUMES      L**3       RATES FOR THIS TIME STEP      L**3/T
     ------------------                 ------------------------

           IN:                                      IN:
           ---                                      ---
             STORAGE =           0.0000               STORAGE =           0.0000
       CONSTANT HEAD =           0.0000         CONSTANT HEAD =           0.0000
               WELLS =           0.0000                 WELLS =           0.0000
     HEAD DEP BOUNDS =      551736.2325       HEAD DEP BOUNDS =           0.2099
      STREAM LEAKAGE =   116043470.3514        STREAM LEAKAGE =          44.1566
        UZF RECHARGE =    22272300.0000          UZF RECHARGE =           8.4750
               GW ET =           0.0000                 GW ET =           0.0000
     SURFACE LEAKAGE =           0.0000       SURFACE LEAKAGE =           0.0000

            TOTAL IN =   138867506.5839              TOTAL IN =          52.8415

          OUT:                                     OUT:
          ----                                     ----
             STORAGE =           0.0000               STORAGE =           0.0000
       CONSTANT HEAD =           0.0000         CONSTANT HEAD =           0.0000
               WELLS =    52560000.0000                 WELLS =          20.0000
     HEAD DEP BOUNDS =      686393.4146       HEAD DEP BOUNDS =           0.2612
      STREAM LEAKAGE =    31918854.9724        STREAM LEAKAGE =          12.1457
        UZF RECHARGE =           0.0000          UZF RECHARGE =           0.0000
               GW ET =    53703568.8795                 GW ET =          20.4351
     SURFACE LEAKAGE =           0.0000       SURFACE LEAKAGE =           0.0000

           TOTAL OUT =   138868817.2666             TOTAL OUT =          52.8420

            IN - OUT =       -1310.6827              IN - OUT =      -4.9874E-04

 PERCENT DISCREPANCY =          -0.00     PERCENT DISCREPANCY =          -0.00


          TIME SUMMARY AT END OF TIME STEP     1 IN STRESS PERIOD      1
                    SECONDS     MINUTES      HOURS       DAYS        YEARS
                    -----------------------------------------------------------
   TIME STEP LENGTH 2.62800E+06  43800.      730.00      30.417     8.32763E-02
 STRESS PERIOD TIME 2.62800E+06  43800.      730.00      30.417     8.32763E-02
         TOTAL TIME 2.62800E+06  43800.      730.00      30.417     8.32763E-02
 
1
                            STRESS PERIOD NO.      2, LENGTH =   2628000.    
                            -----------------------------------------------

                              NUMBER OF TIME STEPS =    15

                               MULTIPLIER FOR DELT =     1.100

                            INITIAL TIME STEP SIZE =   82713.09    

 WEL PACKAGE STRESS PERIOD INFORMATION [BEFORE APPLICATION OF TABFILES]

 WELL NO.  LAYER   ROW   COL   STRESS RATE         
 --------------------------------------------------
      1      1      6      4  -2.0000000    
      2      1      6      5  -2.0000000    
      3      1      7      4  -2.0000000    
      4      1      7      5  -2.0000000    
      5      1      8      4  -2.0000000    
      6      1      8      5  -2.0000000    
      7      1      9      4  -2.0000000    
      8      1      9      5  -2.0000000    
      9      1     10      4  -2.0000000    
     10      1     10      5  -2.0000000    

10 WELLS

 REUSING NON-PARAMETER GHB CELLS FROM LAST STRESS PERIOD

      2 GHB CELLS

 REUSING STREAM SEGMENT DATA FROM LAST STRESS PERIOD



            AREAL INFILTRATION RATE
 READING ON UNIT   19 WITH FORMAT: (10F4.0)            

            1           2           3           4           5           6           7           8           9          10
 ........................................................................................................................
   1   0.8000E-08  0.1600E-07   0.000       0.000       0.000       0.000       0.000       0.000       0.000       0.000    
   2   0.1600E-07  0.8000E-08  0.1600E-07   0.000       0.000      0.6400E-07  0.6400E-07  0.4000E-07   0.000       0.000    
   3    0.000      0.4000E-07  0.8000E-08  0.8000E-08  0.6400E-07  0.6400E-07  0.4000E-07  0.4000E-07   0.000       0.000    
   4   0.6400E-07  0.4000E-07  0.8000E-08  0.8000E-08  0.8000E-08  0.8000E-08  0.8000E-08  0.8000E-08  0.1600E-07   0.000    
   5   0.6400E-07  0.4000E-07  0.8000E-08  0.8000E-08  0.8000E-08  0.8000E-08  0.8000E-08  0.8000E-08  0.8000E-08  0.8000E-08
   6   0.6400E-07  0.4000E-07  0.4000E-07  0.1600E-07  0.1600E-07  0.8000E-08  0.8000E-08  0.8000E-08  0.8000E-08  0.4000E-07
   7   0.6400E-07  0.4000E-07  0.4000E-07  0.1600E-07  0.1600E-07  0.8000E-08  0.8000E-08  0.1600E-07  0.1600E-07   0.000    
   8    0.000      0.4000E-07  0.4000E-07  0.1600E-07  0.1600E-07  0.8000E-08  0.8000E-08  0.1600E-07  0.4000E-07   0.000    
   9    0.000      0.4000E-07  0.4000E-07  0.1600E-07  0.1600E-07  0.8000E-08  0.8000E-08  0.1600E-07  0.4000E-07   0.000    
  10    0.000      0.4000E-07  0.4000E-07  0.1600E-07  0.1600E-07  0.8000E-08  0.8000E-08  0.1600E-07  0.4000E-07  0.6400E-07
  11    0.000      0.8000E-08  0.8000E-08  0.8000E-08  0.8000E-08  0.8000E-08  0.8000E-08  0.1600E-07  0.4000E-07   0.000    
  12   0.8000E-08  0.8000E-08  0.8000E-08  0.8000E-08  0.8000E-08  0.8000E-08  0.8000E-08  0.8000E-08  0.1600E-07   0.000    
  13   0.8000E-08  0.8000E-08  0.1600E-07  0.1600E-07  0.1600E-07  0.1600E-07  0.1600E-07  0.8000E-08  0.8000E-08   0.000    
  14    0.000      0.1600E-07  0.4000E-07  0.4000E-07  0.4000E-07  0.4000E-07  0.4000E-07  0.1600E-07  0.8000E-08   0.000    
  15    0.000       0.000      0.6400E-07  0.6400E-07  0.6400E-07  0.6400E-07   0.000       0.000       0.000       0.000    

                  ET RATE =  5.000000E-08

 USING ET EXTINCTION DEPTH FROM PREVIOUS STRESS PERIOD. CURRENT PERIOD IS:       2

 USING EXTINCTION WATER CONTENT FROM PREVIOUS STRESS PERIOD. CURRENT PERIOD IS:       2
 
 SOLVING FOR HEAD 

     6 ITERATIONS FOR TIME STEP   1 IN STRESS PERIOD    2

 MAXIMUM HEAD CHANGE FOR EACH ITERATION:

    HEAD CHANGE   HEAD CHANGE   HEAD CHANGE   HEAD CHANGE   HEAD CHANGE
  LAYER,ROW,COL LAYER,ROW,COL LAYER,ROW,COL LAYER,ROW,COL LAYER,ROW,COL
 ----------------------------------------------------------------------
     0.8157E-02    0.3247E-02    0.1292E-02    0.5140E-03    0.2044E-03
  (  1,  3,  5) (  1,  3,  5) (  1,  3,  5) (  1,  3,  5) (  1,  3,  5)
     0.8132E-04
  (  1,  3,  5)


 OUTPUT CONTROL WAS SPECIFIED FOR A NONEXISTENT TIME STEP
 OR OUTPUT CONTROL DATA ARE NOT ENTERED IN ASCENDING ORDER
 OUTPUT CONTROL STRESS PERIOD      1   TIME STEP     5
 MODEL STRESS PERIOD      2   TIME STEP     1
 APPLYING THE SPECIFIED OUTPUT CONTROL TO THE CURRENT TIME STEP

 OUTPUT CONTROL FOR STRESS PERIOD      2   TIME STEP     1
    PRINT BUDGET
    SAVE BUDGET

           WELLS   PERIOD 2   STEP 1
WELL          1   LAYER          1   ROW          6   COL          4   RATE -2.0
WELL          2   LAYER          1   ROW          6   COL          5   RATE -2.0
WELL          3   LAYER          1   ROW          7   COL          4   RATE -2.0
WELL          4   LAYER          1   ROW          7   COL          5   RATE -2.0
WELL          5   LAYER          1   ROW          8   COL          4   RATE -2.0
WELL          6   LAYER          1   ROW          8   COL          5   RATE -2.0
WELL          7   LAYER          1   ROW          9   COL          4   RATE -2.0
WELL          8   LAYER          1   ROW          9   COL          5   RATE -2.0
WELL          9   LAYER          1   ROW         10   COL          4   RATE -2.0
WELL         10   LAYER          1   ROW         10   COL          5   RATE -2.0

  HEAD DEP BOUNDS   PERIOD    2   STEP   1
 BOUNDARY      1   LAYER   1   ROW    13   COL     1   RATE   -0.261270       COND    0.380000E-01
 BOUNDARY      2   LAYER   1   ROW    14   COL     9   RATE    0.209784       COND    0.380000E-01



 STREAM LISTING     PERIOD      2   STEP        1

 LAYER ROW COL. STREAM  RCH.  FLOW INTO     FLOW TO   FLOW OUT OF   OVRLND.     DIRECT     STREAM       STREAM     STREAM     STREAM   STREAMBED  STREAMBED  STREAMBED
                SEG.NO.  NO.  STRM. RCH.    AQUIFER    STRM. RCH.    RUNOFF     PRECIP       ET          HEAD       DEPTH      WIDTH   CONDCTNC.   GRADIENT  ELEVATION

   1    1    1     1     1    2.5000E+01  1.0761E+00   2.3924E+01  0.000E+00  0.000E+00  0.000E+00  1.09422E+03  1.172E+00  1.295E+01  5.830E-01  6.153E-01  1.093E+03
   1    2    2     1     2    2.3924E+01  3.1480E+00   2.0776E+01  0.000E+00  0.000E+00  0.000E+00  1.08920E+03  1.139E+00  1.252E+01  8.762E-01  1.198E+00  1.088E+03
   1    3    3     1     3    2.0776E+01  2.8946E+00   1.7881E+01  0.000E+00  0.000E+00  0.000E+00  1.08351E+03  1.089E+00  1.180E+01  7.079E-01  1.363E+00  1.082E+03
   1    3    4     1     4    1.7881E+01  2.4582E+00   1.5423E+01  0.000E+00  0.000E+00  0.000E+00  1.07845E+03  1.043E+00  1.095E+01  6.080E-01  1.348E+00  1.077E+03
   1    4    5     2     1    5.4231E+00  2.6581E+00   2.7650E+00  0.000E+00  0.000E+00  0.000E+00  1.07234E+03  4.078E-01  1.200E+01  7.800E-01  1.136E+00  1.072E+03
   1    5    6     2     2    2.7650E+00  1.9490E+00   8.1604E-01  0.000E+00  0.000E+00  0.000E+00  1.06676E+03  2.483E-01  1.200E+01  6.000E-01  1.083E+00  1.067E+03
   1    6    6     2     3    8.1604E-01  8.1604E-01   0.0000E+00  0.000E+00  0.000E+00  0.000E+00  1.06183E+03  3.486E-02  1.200E+01  6.000E-01  1.012E+00  1.062E+03
   1    7    6     2     4    0.0000E+00  0.0000E+00   0.0000E+00  0.000E+00  0.000E+00  0.000E+00  1.05708E+03  0.000E+00  1.200E+01  6.000E-01  1.000E+00  1.057E+03
   1    8    6     2     5    0.0000E+00  0.0000E+00   0.0000E+00  0.000E+00  0.000E+00  0.000E+00  1.05236E+03  0.000E+00  1.200E+01  6.000E-01  1.000E+00  1.052E+03
   1    3    5     3     1    1.0000E+01  2.8252E+00   7.1748E+00  0.000E+00  0.000E+00  0.000E+00  1.07555E+03  1.909E+00  9.636E+00  7.227E-01  1.955E+00  1.074E+03
   1    3    6     3     2    7.1748E+00  2.2741E+00   4.9006E+00  0.000E+00  0.000E+00  0.000E+00  1.07264E+03  1.727E+00  8.909E+00  6.682E-01  1.702E+00  1.071E+03
   1    3    7     3     3    4.9006E+00  1.1573E+00   3.7434E+00  0.000E+00  0.000E+00  0.000E+00  1.06987E+03  1.555E+00  8.218E+00  5.547E-01  1.043E+00  1.068E+03
   1    4    8     3     4    3.7434E+00  1.6801E+00   2.0633E+00  0.000E+00  0.000E+00  0.000E+00  1.06682E+03  1.364E+00  7.455E+00  6.709E-01  1.252E+00  1.065E+03
   1    5    8     3     5    2.0633E+00  1.5789E+00   4.8434E-01  0.000E+00  0.000E+00  0.000E+00  1.06362E+03  1.164E+00  6.655E+00  4.991E-01  1.582E+00  1.062E+03
   1    6    8     3     6    4.8434E-01  4.8434E-01   0.0000E+00  0.000E+00  0.000E+00  0.000E+00  1.06158E+03  0.000E+00  6.145E+00  1.844E-01  1.518E+00  1.061E+03
   1    5   10     4     1    1.0000E+01  9.0525E-01   9.0947E+00  0.000E+00  0.000E+00  0.000E+00  1.07835E+03  6.210E-01  1.000E+01  2.500E-01  1.207E+00  1.078E+03
   1    5    9     4     2    9.0947E+00  1.7835E+00   7.3113E+00  0.000E+00  0.000E+00  0.000E+00  1.07148E+03  5.670E-01  1.000E+01  5.000E-01  1.189E+00  1.071E+03
   1    6    8     4     3    7.3113E+00  1.2257E+00   6.0855E+00  0.000E+00  0.000E+00  0.000E+00  1.06368E+03  5.021E-01  1.000E+01  3.500E-01  1.167E+00  1.063E+03
   1    6    8     5     1    6.0855E+00  1.0308E+00   5.0548E+00  0.000E+00  0.000E+00  0.000E+00  1.05855E+03  5.472E-01  1.065E+01  4.260E-01  8.066E-01  1.058E+03
   1    7    7     5     2    5.0548E+00  1.5862E+00   3.4686E+00  0.000E+00  0.000E+00  0.000E+00  1.05400E+03  4.983E-01  9.068E+00  4.534E-01  1.166E+00  1.054E+03
   1    8    7     5     3    3.4686E+00  8.8920E-01   2.5794E+00  0.000E+00  0.000E+00  0.000E+00  1.04969E+03  4.419E-01  7.381E+00  2.583E-01  1.147E+00  1.049E+03
   1    8    6     5     4    2.5794E+00  5.3445E-01   2.0449E+00  0.000E+00  0.000E+00  0.000E+00  1.04665E+03  4.023E-01  6.283E+00  1.571E-01  1.134E+00  1.046E+03
   1    9    6     6     1    2.0449E+00  1.9118E+00   1.3317E-01  0.000E+00  0.000E+00  0.000E+00  1.04291E+03  1.863E-01  1.200E+01  6.000E-01  1.062E+00  1.043E+03
   1   10    7     6     2    1.3317E-01  1.3317E-01   0.0000E+00  0.000E+00  0.000E+00  0.000E+00  1.03819E+03  1.188E-02  1.200E+01  6.000E-01  1.004E+00  1.038E+03
   1   11    7     6     3    0.0000E+00  0.0000E+00   0.0000E+00  0.000E+00  0.000E+00  0.000E+00  1.03364E+03  0.000E+00  1.200E+01  6.000E-01  1.000E+00  1.034E+03
   1   12    7     6     4    0.0000E+00  0.0000E+00   0.0000E+00  0.000E+00  0.000E+00  0.000E+00  1.02909E+03  0.000E+00  1.200E+01  6.000E-01  4.139E-01  1.029E+03
   1   13    7     6     5    0.0000E+00 -7.6351E-01   7.6351E-01  0.000E+00  0.000E+00  0.000E+00  1.02601E+03  9.932E-02  1.200E+01  2.400E-01 -1.060E+00  1.026E+03
   1   14    9     7     1    1.5000E+02  2.1630E+00   1.4784E+02  0.000E+00  0.000E+00  0.000E+00  1.03987E+03  2.286E+00  5.528E+01  5.592E+00  1.289E-01  1.038E+03
   1   13    8     7     2    1.4784E+02  3.1864E+00   1.4465E+02  0.000E+00  0.000E+00  0.000E+00  1.03477E+03  2.271E+00  5.522E+01  6.143E+00  1.729E-01  1.032E+03
   1   13    7     7     3    1.4465E+02  2.7055E+00   1.4195E+02  0.000E+00  0.000E+00  0.000E+00  1.02967E+03  2.255E+00  5.515E+01  5.577E+00  1.617E-01  1.027E+03
   1   13    6     8     1    1.4271E+02  1.0328E+00   1.4168E+02  0.000E+00  0.000E+00  0.000E+00  1.02464E+03  2.761E+00  4.003E+01  4.080E+00  8.439E-02  1.022E+03
   1   13    5     8     2    1.4168E+02 -1.7268E+00   1.4340E+02  0.000E+00  0.000E+00  0.000E+00  1.01839E+03  2.763E+00  4.007E+01  4.083E+00 -1.410E-01  1.016E+03
   1   13    4     8     3    1.4340E+02 -3.4983E+00   1.4690E+02  0.000E+00  0.000E+00  0.000E+00  1.01216E+03  2.782E+00  4.034E+01  4.111E+00 -2.836E-01  1.009E+03
   1   13    3     8     4    1.4690E+02 -3.8416E+00   1.5074E+02  0.000E+00  0.000E+00  0.000E+00  1.00593E+03  2.809E+00  4.072E+01  4.150E+00 -3.086E-01  1.003E+03
   1   13    2     8     5    1.5074E+02 -1.9301E+00   1.5267E+02  0.000E+00  0.000E+00  0.000E+00  9.99704E+02  2.829E+00  4.102E+01  4.180E+00 -1.539E-01  9.969E+02
   1   13    1     8     6    1.5267E+02 -4.1132E-01   1.5308E+02  0.000E+00  0.000E+00  0.000E+00  9.94712E+02  2.837E+00  4.114E+01  2.515E+00 -5.451E-02  9.919E+02



 UBDSV3 SAVING "           GW ET" ON UNIT 61 AT TIME STEP 1, STRESS PERIOD 2
 UBDSV3 SAVING "    UZF RECHARGE" ON UNIT 61 AT TIME STEP 1, STRESS PERIOD 2
 UBDSV3 SAVING " SURFACE LEAKAGE" ON UNIT 61 AT TIME STEP 1, STRESS PERIOD 2
 UBDSV3 SAVING "       HORT+DUNN" ON UNIT 61 AT TIME STEP 1, STRESS PERIOD 2
 UBDSV3 SAVING "  STORAGE CHANGE" ON UNIT 61 AT TIME STEP 1, STRESS PERIOD 2


UNSATURATED ZONE PACKAGE VOLUMETRIC BUDGET FOR  TIME STEP     1 STRESS PERIOD    2
  ------------------------------------------------------------------------------



     CUMULATIVE VOLUMES      L**3       RATES FOR THIS TIME STEP      L**3/T
     ------------------                 ------------------------

           IN:                                      IN:
           ---                                      ---
        INFILTRATION =     2.7880247E+7          INFILTRATION =       67.8000000

          OUT:                                     OUT:
          ----                                     ----
              UZF ET =     1.0303143E+7                UZF ET =        124.56485
        UZF RECHARGE =     2.3077021E+7          UZF RECHARGE =        9.7290637

            IN - OUT =    -5.4999169E+6              IN - OUT =      -66.4939157

          STORAGE:                                 STORAGE:
          --------                                 --------
      STORAGE CHANGE =    -5.4987953E+6        STORAGE CHANGE =      -66.4803548

 PERCENT DISCREPANCY =          -0.00     PERCENT DISCREPANCY =          -0.01




 PERCENT DISCREPANCY IS DIFFERENCE BETWEEN IN-OUT MINUS CHANGE IN STORAGE
 DIVIDED BY THE AVERAGE OF IN AND OUT TIMES 100






  -------------------------------------------------------------------------------------
  VOLUMETRIC BUDGET FOR ENTIRE MODEL AT END OF TIME STEP    1 IN STRESS PERIOD      2
  -------------------------------------------------------------------------------------

     CUMULATIVE VOLUMES      L**3       RATES FOR THIS TIME STEP      L**3/T
     ------------------                 ------------------------

           IN:                                      IN:
           ---                                      ---
             STORAGE =           4.0904               STORAGE =       4.9453E-05
       CONSTANT HEAD =           0.0000         CONSTANT HEAD =           0.0000
               WELLS =           0.0000                 WELLS =           0.0000
     HEAD DEP BOUNDS =      569088.1285       HEAD DEP BOUNDS =           0.2098
      STREAM LEAKAGE =   119690091.4086        STREAM LEAKAGE =          44.0876
        UZF RECHARGE =    23077020.8760          UZF RECHARGE =           9.7291
               GW ET =           0.0000                 GW ET =           0.0000
     SURFACE LEAKAGE =           0.0000       SURFACE LEAKAGE =           0.0000

            TOTAL IN =   143336204.5035              TOTAL IN =          54.0265

          OUT:                                     OUT:
          ----                                     ----
             STORAGE =      665250.1930               STORAGE =           8.0429
       CONSTANT HEAD =           0.0000         CONSTANT HEAD =           0.0000
               WELLS =    54214261.7132                 WELLS =          20.0000
     HEAD DEP BOUNDS =      708003.8526       HEAD DEP BOUNDS =           0.2613
      STREAM LEAKAGE =    32925609.0640        STREAM LEAKAGE =          12.1716
        UZF RECHARGE =           0.0000          UZF RECHARGE =           0.0000
               GW ET =    54823620.0569                 GW ET =          13.5414
     SURFACE LEAKAGE =           0.0000       SURFACE LEAKAGE =           0.0000

           TOTAL OUT =   143336744.8797             TOTAL OUT =          54.0172

            IN - OUT =        -540.3763              IN - OUT =       9.3130E-03

 PERCENT DISCREPANCY =          -0.00     PERCENT DISCREPANCY =           0.02


          TIME SUMMARY AT END OF TIME STEP     1 IN STRESS PERIOD      2
                    SECONDS     MINUTES      HOURS       DAYS        YEARS
                    -----------------------------------------------------------
   TIME STEP LENGTH  82713.      1378.6      22.976     0.95733     2.62102E-03
 STRESS PERIOD TIME  82713.      1378.6      22.976     0.95733     2.62102E-03
         TOTAL TIME 2.71071E+06  45179.      752.98      31.374     8.58973E-02
 
 
 SOLVING FOR HEAD 
     6 ITERATIONS FOR TIME STEP   2 IN STRESS PERIOD    2

 MAXIMUM HEAD CHANGE FOR EACH ITERATION:

    HEAD CHANGE   HEAD CHANGE   HEAD CHANGE   HEAD CHANGE   HEAD CHANGE
  LAYER,ROW,COL LAYER,ROW,COL LAYER,ROW,COL LAYER,ROW,COL LAYER,ROW,COL
 ----------------------------------------------------------------------
     0.8557E-02    0.3385E-02    0.1338E-02    0.5291E-03    0.2091E-03
  (  1,  3,  5) (  1,  3,  5) (  1,  3,  5) (  1,  3,  5) (  1,  3,  5)
     0.8263E-04
  (  1,  3,  5)


 OUTPUT CONTROL WAS SPECIFIED FOR A NONEXISTENT TIME STEP
 OR OUTPUT CONTROL DATA ARE NOT ENTERED IN ASCENDING ORDER
 OUTPUT CONTROL STRESS PERIOD      1   TIME STEP    10
 MODEL STRESS PERIOD      2   TIME STEP     2
 APPLYING THE SPECIFIED OUTPUT CONTROL TO THE CURRENT TIME STEP

 OUTPUT CONTROL FOR STRESS PERIOD      2   TIME STEP     2
    PRINT BUDGET
    SAVE BUDGET

           WELLS   PERIOD 2   STEP 2
WELL          1   LAYER          1   ROW          6   COL          4   RATE -2.0
WELL          2   LAYER          1   ROW          6   COL          5   RATE -2.0
WELL          3   LAYER          1   ROW          7   COL          4   RATE -2.0
WELL          4   LAYER          1   ROW          7   COL          5   RATE -2.0
WELL          5   LAYER          1   ROW          8   COL          4   RATE -2.0
WELL          6   LAYER          1   ROW          8   COL          5   RATE -2.0
WELL          7   LAYER          1   ROW          9   COL          4   RATE -2.0
WELL          8   LAYER          1   ROW          9   COL          5   RATE -2.0
WELL          9   LAYER          1   ROW         10   COL          4   RATE -2.0
WELL         10   LAYER          1   ROW         10   COL          5   RATE -2.0

  HEAD DEP BOUNDS   PERIOD    2   STEP   2
 BOUNDARY      1   LAYER   1   ROW    13   COL     1   RATE   -0.261359       COND    0.380000E-01
 BOUNDARY      2   LAYER   1   ROW    14   COL     9   RATE    0.209627       COND    0.380000E-01



 STREAM LISTING     PERIOD      2   STEP        2

 LAYER ROW COL. STREAM  RCH.  FLOW INTO     FLOW TO   FLOW OUT OF   OVRLND.     DIRECT     STREAM       STREAM     STREAM     STREAM   STREAMBED  STREAMBED  STREAMBED
                SEG.NO.  NO.  STRM. RCH.    AQUIFER    STRM. RCH.    RUNOFF     PRECIP       ET          HEAD       DEPTH      WIDTH   CONDCTNC.   GRADIENT  ELEVATION

   1    1    1     1     1    2.5000E+01  1.0739E+00   2.3926E+01  0.000E+00  0.000E+00  0.000E+00  1.09422E+03  1.172E+00  1.296E+01  5.830E-01  6.140E-01  1.093E+03
   1    2    2     1     2    2.3926E+01  3.1431E+00   2.0783E+01  0.000E+00  0.000E+00  0.000E+00  1.08920E+03  1.139E+00  1.252E+01  8.763E-01  1.196E+00  1.088E+03
   1    3    3     1     3    2.0783E+01  2.8952E+00   1.7888E+01  0.000E+00  0.000E+00  0.000E+00  1.08351E+03  1.089E+00  1.180E+01  7.080E-01  1.363E+00  1.082E+03
   1    3    4     1     4    1.7888E+01  2.4587E+00   1.5429E+01  0.000E+00  0.000E+00  0.000E+00  1.07845E+03  1.043E+00  1.096E+01  6.081E-01  1.348E+00  1.077E+03
   1    4    5     2     1    5.4291E+00  2.6583E+00   2.7707E+00  0.000E+00  0.000E+00  0.000E+00  1.07234E+03  4.081E-01  1.200E+01  7.800E-01  1.136E+00  1.072E+03
   1    5    6     2     2    2.7707E+00  1.9492E+00   8.2151E-01  0.000E+00  0.000E+00  0.000E+00  1.06676E+03  2.487E-01  1.200E+01  6.000E-01  1.083E+00  1.067E+03
   1    6    6     2     3    8.2151E-01  8.2151E-01   0.0000E+00  0.000E+00  0.000E+00  0.000E+00  1.06183E+03  3.500E-02  1.200E+01  6.000E-01  1.012E+00  1.062E+03
   1    7    6     2     4    0.0000E+00  0.0000E+00   0.0000E+00  0.000E+00  0.000E+00  0.000E+00  1.05708E+03  0.000E+00  1.200E+01  6.000E-01  1.000E+00  1.057E+03
   1    8    6     2     5    0.0000E+00  0.0000E+00   0.0000E+00  0.000E+00  0.000E+00  0.000E+00  1.05236E+03  0.000E+00  1.200E+01  6.000E-01  1.000E+00  1.052E+03
   1    3    5     3     1    1.0000E+01  2.8252E+00   7.1748E+00  0.000E+00  0.000E+00  0.000E+00  1.07555E+03  1.909E+00  9.636E+00  7.227E-01  1.955E+00  1.074E+03
   1    3    6     3     2    7.1748E+00  2.2654E+00   4.9094E+00  0.000E+00  0.000E+00  0.000E+00  1.07264E+03  1.727E+00  8.909E+00  6.682E-01  1.695E+00  1.071E+03
   1    3    7     3     3    4.9094E+00  1.1510E+00   3.7584E+00  0.000E+00  0.000E+00  0.000E+00  1.06987E+03  1.555E+00  8.218E+00  5.547E-01  1.037E+00  1.068E+03
   1    4    8     3     4    3.7584E+00  1.6728E+00   2.0856E+00  0.000E+00  0.000E+00  0.000E+00  1.06682E+03  1.364E+00  7.455E+00  6.709E-01  1.247E+00  1.065E+03
   1    5    8     3     5    2.0856E+00  1.5789E+00   5.0664E-01  0.000E+00  0.000E+00  0.000E+00  1.06362E+03  1.164E+00  6.655E+00  4.991E-01  1.582E+00  1.062E+03
   1    6    8     3     6    5.0664E-01  5.0664E-01   0.0000E+00  0.000E+00  0.000E+00  0.000E+00  1.06158E+03  0.000E+00  6.145E+00  1.844E-01  1.518E+00  1.061E+03
   1    5   10     4     1    1.0000E+01  9.0525E-01   9.0947E+00  0.000E+00  0.000E+00  0.000E+00  1.07835E+03  6.210E-01  1.000E+01  2.500E-01  1.207E+00  1.078E+03
   1    5    9     4     2    9.0947E+00  1.7835E+00   7.3113E+00  0.000E+00  0.000E+00  0.000E+00  1.07148E+03  5.670E-01  1.000E+01  5.000E-01  1.189E+00  1.071E+03
   1    6    8     4     3    7.3113E+00  1.2257E+00   6.0855E+00  0.000E+00  0.000E+00  0.000E+00  1.06368E+03  5.021E-01  1.000E+01  3.500E-01  1.167E+00  1.063E+03
   1    6    8     5     1    6.0855E+00  1.0280E+00   5.0575E+00  0.000E+00  0.000E+00  0.000E+00  1.05855E+03  5.473E-01  1.065E+01  4.260E-01  8.044E-01  1.058E+03
   1    7    7     5     2    5.0575E+00  1.5868E+00   3.4707E+00  0.000E+00  0.000E+00  0.000E+00  1.05400E+03  4.984E-01  9.072E+00  4.536E-01  1.166E+00  1.054E+03
   1    8    7     5     3    3.4707E+00  8.8956E-01   2.5812E+00  0.000E+00  0.000E+00  0.000E+00  1.04969E+03  4.420E-01  7.384E+00  2.584E-01  1.147E+00  1.049E+03
   1    8    6     5     4    2.5812E+00  5.3469E-01   2.0465E+00  0.000E+00  0.000E+00  0.000E+00  1.04665E+03  4.024E-01  6.286E+00  1.572E-01  1.134E+00  1.046E+03
   1    9    6     6     1    2.0465E+00  1.9119E+00   1.3460E-01  0.000E+00  0.000E+00  0.000E+00  1.04291E+03  1.864E-01  1.200E+01  6.000E-01  1.062E+00  1.043E+03
   1   10    7     6     2    1.3460E-01  1.3460E-01   0.0000E+00  0.000E+00  0.000E+00  0.000E+00  1.03819E+03  1.196E-02  1.200E+01  6.000E-01  1.004E+00  1.038E+03
   1   11    7     6     3    0.0000E+00  0.0000E+00   0.0000E+00  0.000E+00  0.000E+00  0.000E+00  1.03364E+03  0.000E+00  1.200E+01  6.000E-01  1.000E+00  1.034E+03
   1   12    7     6     4    0.0000E+00  0.0000E+00   0.0000E+00  0.000E+00  0.000E+00  0.000E+00  1.02909E+03  0.000E+00  1.200E+01  6.000E-01  4.123E-01  1.029E+03
   1   13    7     6     5    0.0000E+00 -7.6419E-01   7.6419E-01  0.000E+00  0.000E+00  0.000E+00  1.02601E+03  9.937E-02  1.200E+01  2.400E-01 -1.061E+00  1.026E+03
   1   14    9     7     1    1.5000E+02  2.1402E+00   1.4786E+02  0.000E+00  0.000E+00  0.000E+00  1.03987E+03  2.286E+00  5.529E+01  5.592E+00  1.276E-01  1.038E+03
   1   13    8     7     2    1.4786E+02  3.1656E+00   1.4469E+02  0.000E+00  0.000E+00  0.000E+00  1.03477E+03  2.271E+00  5.522E+01  6.143E+00  1.718E-01  1.032E+03
   1   13    7     7     3    1.4469E+02  2.6909E+00   1.4200E+02  0.000E+00  0.000E+00  0.000E+00  1.02968E+03  2.256E+00  5.515E+01  5.577E+00  1.608E-01  1.027E+03
   1   13    6     8     1    1.4277E+02  1.0231E+00   1.4174E+02  0.000E+00  0.000E+00  0.000E+00  1.02464E+03  2.761E+00  4.004E+01  4.080E+00  8.358E-02  1.022E+03
   1   13    5     8     2    1.4174E+02 -1.7300E+00   1.4347E+02  0.000E+00  0.000E+00  0.000E+00  1.01839E+03  2.764E+00  4.008E+01  4.084E+00 -1.412E-01  1.016E+03
   1   13    4     8     3    1.4347E+02 -3.5002E+00   1.4697E+02  0.000E+00  0.000E+00  0.000E+00  1.01216E+03  2.783E+00  4.035E+01  4.112E+00 -2.837E-01  1.009E+03
   1   13    3     8     4    1.4697E+02 -3.8444E+00   1.5082E+02  0.000E+00  0.000E+00  0.000E+00  1.00593E+03  2.809E+00  4.073E+01  4.151E+00 -3.087E-01  1.003E+03
   1   13    2     8     5    1.5082E+02 -1.9441E+00   1.5276E+02  0.000E+00  0.000E+00  0.000E+00  9.99704E+02  2.829E+00  4.103E+01  4.181E+00 -1.550E-01  9.969E+02
   1   13    1     8     6    1.5276E+02 -4.1570E-01   1.5318E+02  0.000E+00  0.000E+00  0.000E+00  9.94713E+02  2.838E+00  4.115E+01  2.516E+00 -5.508E-02  9.919E+02



 UBDSV3 SAVING "           GW ET" ON UNIT 61 AT TIME STEP 2, STRESS PERIOD 2
 UBDSV3 SAVING "    UZF RECHARGE" ON UNIT 61 AT TIME STEP 2, STRESS PERIOD 2
 UBDSV3 SAVING " SURFACE LEAKAGE" ON UNIT 61 AT TIME STEP 2, STRESS PERIOD 2
 UBDSV3 SAVING "       HORT+DUNN" ON UNIT 61 AT TIME STEP 2, STRESS PERIOD 2
 UBDSV3 SAVING "  STORAGE CHANGE" ON UNIT 61 AT TIME STEP 2, STRESS PERIOD 2


UNSATURATED ZONE PACKAGE VOLUMETRIC BUDGET FOR  TIME STEP     2 STRESS PERIOD    2
  ------------------------------------------------------------------------------



     CUMULATIVE VOLUMES      L**3       RATES FOR THIS TIME STEP      L**3/T
     ------------------                 ------------------------

           IN:                                      IN:
           ---                                      ---
        INFILTRATION =     3.4048989E+7          INFILTRATION =       67.8000000

          OUT:                                     OUT:
          ----                                     ----
              UZF ET =     2.1635367E+7                UZF ET =        124.55129
        UZF RECHARGE =     2.3952576E+7          UZF RECHARGE =        9.6231369

            IN - OUT =    -1.1538954E+7              IN - OUT =      -66.3744281

          STORAGE:                                 STORAGE:
          --------                                 --------
      STORAGE CHANGE =    -1.1536530E+7        STORAGE CHANGE =      -66.3601120

 PERCENT DISCREPANCY =          -0.00     PERCENT DISCREPANCY =          -0.01




 PERCENT DISCREPANCY IS DIFFERENCE BETWEEN IN-OUT MINUS CHANGE IN STORAGE
 DIVIDED BY THE AVERAGE OF IN AND OUT TIMES 100






  -------------------------------------------------------------------------------------
  VOLUMETRIC BUDGET FOR ENTIRE MODEL AT END OF TIME STEP    2 IN STRESS PERIOD      2
  -------------------------------------------------------------------------------------

     CUMULATIVE VOLUMES      L**3       RATES FOR THIS TIME STEP      L**3/T
     ------------------                 ------------------------

           IN:                                      IN:
           ---                                      ---
             STORAGE =           8.0120               STORAGE =       4.3101E-05
       CONSTANT HEAD =           0.0000         CONSTANT HEAD =           0.0000
               WELLS =           0.0000                 WELLS =           0.0000
     HEAD DEP BOUNDS =      588160.9279       HEAD DEP BOUNDS =           0.2096
      STREAM LEAKAGE =   123695207.5407        STREAM LEAKAGE =          44.0198
        UZF RECHARGE =    23952576.1566          UZF RECHARGE =           9.6231
               GW ET =           0.0000                 GW ET =           0.0000
     SURFACE LEAKAGE =           0.0000       SURFACE LEAKAGE =           0.0000

            TOTAL IN =   148235952.6372              TOTAL IN =          53.8526

          OUT:                                     OUT:
          ----                                     ----
             STORAGE =     1377547.0001               STORAGE =           7.8288
       CONSTANT HEAD =           0.0000         CONSTANT HEAD =           0.0000
               WELLS =    56033949.5977                 WELLS =          20.0000
     HEAD DEP BOUNDS =      731783.4509       HEAD DEP BOUNDS =           0.2614
      STREAM LEAKAGE =    34035496.0171        STREAM LEAKAGE =          12.1987
        UZF RECHARGE =           0.0000          UZF RECHARGE =           0.0000
               GW ET =    56056915.3397                 GW ET =          13.5550
     SURFACE LEAKAGE =           0.0000       SURFACE LEAKAGE =           0.0000

           TOTAL OUT =   148235691.4055             TOTAL OUT =          53.8438

            IN - OUT =         261.2318              IN - OUT =       8.8104E-03

 PERCENT DISCREPANCY =           0.00     PERCENT DISCREPANCY =           0.02


          TIME SUMMARY AT END OF TIME STEP     2 IN STRESS PERIOD      2
                    SECONDS     MINUTES      HOURS       DAYS        YEARS
                    -----------------------------------------------------------
   TIME STEP LENGTH  90984.      1516.4      25.273      1.0531     2.88312E-03
 STRESS PERIOD TIME 1.73697E+05  2895.0      48.249      2.0104     5.50414E-03
         TOTAL TIME 2.80170E+06  46695.      778.25      32.427     8.87804E-02
 
 
 SOLVING FOR HEAD 
     6 ITERATIONS FOR TIME STEP   3 IN STRESS PERIOD    2

 MAXIMUM HEAD CHANGE FOR EACH ITERATION:

    HEAD CHANGE   HEAD CHANGE   HEAD CHANGE   HEAD CHANGE   HEAD CHANGE
  LAYER,ROW,COL LAYER,ROW,COL LAYER,ROW,COL LAYER,ROW,COL LAYER,ROW,COL
 ----------------------------------------------------------------------
     0.9153E-02    0.3508E-02    0.1377E-02    0.5407E-03    0.2122E-03
  (  1, 12,  8) (  1,  3,  5) (  1,  3,  5) (  1,  3,  5) (  1,  3,  5)
     0.8327E-04
  (  1,  3,  5)


 OUTPUT CONTROL WAS SPECIFIED FOR A NONEXISTENT TIME STEP
 OR OUTPUT CONTROL DATA ARE NOT ENTERED IN ASCENDING ORDER
 OUTPUT CONTROL STRESS PERIOD      1   TIME STEP    15
 MODEL STRESS PERIOD      2   TIME STEP     3
 APPLYING THE SPECIFIED OUTPUT CONTROL TO THE CURRENT TIME STEP

 OUTPUT CONTROL FOR STRESS PERIOD      2   TIME STEP     3
    PRINT BUDGET
    PRINT HEAD FOR ALL LAYERS
    SAVE HEAD FOR ALL LAYERS
    SAVE BUDGET

           WELLS   PERIOD 2   STEP 3
WELL          1   LAYER          1   ROW          6   COL          4   RATE -2.0
WELL          2   LAYER          1   ROW          6   COL          5   RATE -2.0
WELL          3   LAYER          1   ROW          7   COL          4   RATE -2.0
WELL          4   LAYER          1   ROW          7   COL          5   RATE -2.0
WELL          5   LAYER          1   ROW          8   COL          4   RATE -2.0
WELL          6   LAYER          1   ROW          8   COL          5   RATE -2.0
WELL          7   LAYER          1   ROW          9   COL          4   RATE -2.0
WELL          8   LAYER          1   ROW          9   COL          5   RATE -2.0
WELL          9   LAYER          1   ROW         10   COL          4   RATE -2.0
WELL         10   LAYER          1   ROW         10   COL          5   RATE -2.0

  HEAD DEP BOUNDS   PERIOD    2   STEP   3
 BOUNDARY      1   LAYER   1   ROW    13   COL     1   RATE   -0.261452       COND    0.380000E-01
 BOUNDARY      2   LAYER   1   ROW    14   COL     9   RATE    0.209476       COND    0.380000E-01



 STREAM LISTING     PERIOD      2   STEP        3

 LAYER ROW COL. STREAM  RCH.  FLOW INTO     FLOW TO   FLOW OUT OF   OVRLND.     DIRECT     STREAM       STREAM     STREAM     STREAM   STREAMBED  STREAMBED  STREAMBED
                SEG.NO.  NO.  STRM. RCH.    AQUIFER    STRM. RCH.    RUNOFF     PRECIP       ET          HEAD       DEPTH      WIDTH   CONDCTNC.   GRADIENT  ELEVATION

   1    1    1     1     1    2.5000E+01  1.0715E+00   2.3929E+01  0.000E+00  0.000E+00  0.000E+00  1.09422E+03  1.172E+00  1.296E+01  5.830E-01  6.126E-01  1.093E+03
   1    2    2     1     2    2.3929E+01  3.1379E+00   2.0791E+01  0.000E+00  0.000E+00  0.000E+00  1.08920E+03  1.139E+00  1.252E+01  8.764E-01  1.194E+00  1.088E+03
   1    3    3     1     3    2.0791E+01  2.8958E+00   1.7895E+01  0.000E+00  0.000E+00  0.000E+00  1.08351E+03  1.089E+00  1.180E+01  7.081E-01  1.363E+00  1.082E+03
   1    3    4     1     4    1.7895E+01  2.4593E+00   1.5435E+01  0.000E+00  0.000E+00  0.000E+00  1.07845E+03  1.043E+00  1.096E+01  6.082E-01  1.348E+00  1.077E+03
   1    4    5     2     1    5.4355E+00  2.6586E+00   2.7768E+00  0.000E+00  0.000E+00  0.000E+00  1.07234E+03  4.085E-01  1.200E+01  7.800E-01  1.136E+00  1.072E+03
   1    5    6     2     2    2.7768E+00  1.9495E+00   8.2730E-01  0.000E+00  0.000E+00  0.000E+00  1.06676E+03  2.492E-01  1.200E+01  6.000E-01  1.083E+00  1.067E+03
   1    6    6     2     3    8.2730E-01  8.2730E-01   0.0000E+00  0.000E+00  0.000E+00  0.000E+00  1.06183E+03  3.515E-02  1.200E+01  6.000E-01  1.012E+00  1.062E+03
   1    7    6     2     4    0.0000E+00  0.0000E+00   0.0000E+00  0.000E+00  0.000E+00  0.000E+00  1.05708E+03  0.000E+00  1.200E+01  6.000E-01  1.000E+00  1.057E+03
   1    8    6     2     5    0.0000E+00  0.0000E+00   0.0000E+00  0.000E+00  0.000E+00  0.000E+00  1.05236E+03  0.000E+00  1.200E+01  6.000E-01  1.000E+00  1.052E+03
   1    3    5     3     1    1.0000E+01  2.8252E+00   7.1748E+00  0.000E+00  0.000E+00  0.000E+00  1.07555E+03  1.909E+00  9.636E+00  7.227E-01  1.955E+00  1.074E+03
   1    3    6     3     2    7.1748E+00  2.2567E+00   4.9181E+00  0.000E+00  0.000E+00  0.000E+00  1.07264E+03  1.727E+00  8.909E+00  6.682E-01  1.689E+00  1.071E+03
   1    3    7     3     3    4.9181E+00  1.1446E+00   3.7736E+00  0.000E+00  0.000E+00  0.000E+00  1.06987E+03  1.555E+00  8.218E+00  5.547E-01  1.032E+00  1.068E+03
   1    4    8     3     4    3.7736E+00  1.6652E+00   2.1084E+00  0.000E+00  0.000E+00  0.000E+00  1.06682E+03  1.364E+00  7.455E+00  6.709E-01  1.241E+00  1.065E+03
   1    5    8     3     5    2.1084E+00  1.5789E+00   5.2942E-01  0.000E+00  0.000E+00  0.000E+00  1.06362E+03  1.164E+00  6.655E+00  4.991E-01  1.582E+00  1.062E+03
   1    6    8     3     6    5.2942E-01  5.2942E-01   0.0000E+00  0.000E+00  0.000E+00  0.000E+00  1.06158E+03  0.000E+00  6.145E+00  1.844E-01  1.518E+00  1.061E+03
   1    5   10     4     1    1.0000E+01  9.0525E-01   9.0947E+00  0.000E+00  0.000E+00  0.000E+00  1.07835E+03  6.210E-01  1.000E+01  2.500E-01  1.207E+00  1.078E+03
   1    5    9     4     2    9.0947E+00  1.7835E+00   7.3113E+00  0.000E+00  0.000E+00  0.000E+00  1.07148E+03  5.670E-01  1.000E+01  5.000E-01  1.189E+00  1.071E+03
   1    6    8     4     3    7.3113E+00  1.2257E+00   6.0855E+00  0.000E+00  0.000E+00  0.000E+00  1.06368E+03  5.021E-01  1.000E+01  3.500E-01  1.167E+00  1.063E+03
   1    6    8     5     1    6.0855E+00  1.0250E+00   5.0606E+00  0.000E+00  0.000E+00  0.000E+00  1.05855E+03  5.473E-01  1.065E+01  4.261E-01  8.019E-01  1.058E+03
   1    7    7     5     2    5.0606E+00  1.5874E+00   3.4731E+00  0.000E+00  0.000E+00  0.000E+00  1.05400E+03  4.985E-01  9.075E+00  4.537E-01  1.166E+00  1.054E+03
   1    8    7     5     3    3.4731E+00  8.8998E-01   2.5831E+00  0.000E+00  0.000E+00  0.000E+00  1.04969E+03  4.421E-01  7.387E+00  2.586E-01  1.147E+00  1.049E+03
   1    8    6     5     4    2.5831E+00  5.3496E-01   2.0482E+00  0.000E+00  0.000E+00  0.000E+00  1.04665E+03  4.025E-01  6.289E+00  1.572E-01  1.134E+00  1.046E+03
   1    9    6     6     1    2.0482E+00  1.9120E+00   1.3621E-01  0.000E+00  0.000E+00  0.000E+00  1.04291E+03  1.866E-01  1.200E+01  6.000E-01  1.062E+00  1.043E+03
   1   10    7     6     2    1.3621E-01  1.3621E-01   0.0000E+00  0.000E+00  0.000E+00  0.000E+00  1.03819E+03  1.204E-02  1.200E+01  6.000E-01  1.004E+00  1.038E+03
   1   11    7     6     3    0.0000E+00  0.0000E+00   0.0000E+00  0.000E+00  0.000E+00  0.000E+00  1.03364E+03  0.000E+00  1.200E+01  6.000E-01  1.000E+00  1.034E+03
   1   12    7     6     4    0.0000E+00  0.0000E+00   0.0000E+00  0.000E+00  0.000E+00  0.000E+00  1.02909E+03  0.000E+00  1.200E+01  6.000E-01  4.105E-01  1.029E+03
   1   13    7     6     5    0.0000E+00 -7.6485E-01   7.6485E-01  0.000E+00  0.000E+00  0.000E+00  1.02601E+03  9.943E-02  1.200E+01  2.400E-01 -1.062E+00  1.026E+03
   1   14    9     7     1    1.5000E+02  2.1183E+00   1.4788E+02  0.000E+00  0.000E+00  0.000E+00  1.03987E+03  2.286E+00  5.529E+01  5.592E+00  1.263E-01  1.038E+03
   1   13    8     7     2    1.4788E+02  3.1455E+00   1.4474E+02  0.000E+00  0.000E+00  0.000E+00  1.03477E+03  2.272E+00  5.522E+01  6.144E+00  1.707E-01  1.032E+03
   1   13    7     7     3    1.4474E+02  2.6768E+00   1.4206E+02  0.000E+00  0.000E+00  0.000E+00  1.02968E+03  2.256E+00  5.515E+01  5.577E+00  1.600E-01  1.027E+03
   1   13    6     8     1    1.4282E+02  1.0132E+00   1.4181E+02  0.000E+00  0.000E+00  0.000E+00  1.02464E+03  2.762E+00  4.005E+01  4.081E+00  8.276E-02  1.022E+03
   1   13    5     8     2    1.4181E+02 -1.7337E+00   1.4354E+02  0.000E+00  0.000E+00  0.000E+00  1.01839E+03  2.764E+00  4.008E+01  4.085E+00 -1.415E-01  1.016E+03
   1   13    4     8     3    1.4354E+02 -3.5023E+00   1.4705E+02  0.000E+00  0.000E+00  0.000E+00  1.01216E+03  2.783E+00  4.036E+01  4.113E+00 -2.839E-01  1.009E+03
   1   13    3     8     4    1.4705E+02 -3.8473E+00   1.5089E+02  0.000E+00  0.000E+00  0.000E+00  1.00593E+03  2.810E+00  4.074E+01  4.151E+00 -3.089E-01  1.003E+03
   1   13    2     8     5    1.5089E+02 -1.9580E+00   1.5285E+02  0.000E+00  0.000E+00  0.000E+00  9.99705E+02  2.830E+00  4.103E+01  4.182E+00 -1.561E-01  9.969E+02
   1   13    1     8     6    1.5285E+02 -4.2034E-01   1.5327E+02  0.000E+00  0.000E+00  0.000E+00  9.94713E+02  2.838E+00  4.115E+01  2.516E+00 -5.568E-02  9.919E+02



 UBDSV3 SAVING "           GW ET" ON UNIT 61 AT TIME STEP 3, STRESS PERIOD 2
 UBDSV3 SAVING "    UZF RECHARGE" ON UNIT 61 AT TIME STEP 3, STRESS PERIOD 2
 UBDSV3 SAVING " SURFACE LEAKAGE" ON UNIT 61 AT TIME STEP 3, STRESS PERIOD 2
 UBDSV3 SAVING "       HORT+DUNN" ON UNIT 61 AT TIME STEP 3, STRESS PERIOD 2
 UBDSV3 SAVING "  STORAGE CHANGE" ON UNIT 61 AT TIME STEP 3, STRESS PERIOD 2


UNSATURATED ZONE PACKAGE VOLUMETRIC BUDGET FOR  TIME STEP     3 STRESS PERIOD    2
  ------------------------------------------------------------------------------



     CUMULATIVE VOLUMES      L**3       RATES FOR THIS TIME STEP      L**3/T
     ------------------                 ------------------------

           IN:                                      IN:
           ---                                      ---
        INFILTRATION =     4.0834605E+7          INFILTRATION =       67.8000000

          OUT:                                     OUT:
          ----                                     ----
              UZF ET =     3.4099380E+7                UZF ET =        124.53698
        UZF RECHARGE =     2.4904613E+7          UZF RECHARGE =        9.5124844

            IN - OUT =    -1.8169388E+7              IN - OUT =      -66.2494595

          STORAGE:                                 STORAGE:
          --------                                 --------
      STORAGE CHANGE =    -1.8165456E+7        STORAGE CHANGE =      -66.2343931

 PERCENT DISCREPANCY =          -0.00     PERCENT DISCREPANCY =          -0.01




 PERCENT DISCREPANCY IS DIFFERENCE BETWEEN IN-OUT MINUS CHANGE IN STORAGE
 DIVIDED BY THE AVERAGE OF IN AND OUT TIMES 100



1
              HEAD IN LAYER   1 AT END OF TIME STEP   3 IN STRESS PERIOD    2
  ---------------------------------------------------------------------------

           1       2       3       4       5       6       7       8       9      10
 ...................................................................................
   1  1092.38 1088.63 6999.00 6999.00 6999.00 6999.00 6999.00 6999.00 6999.00 6999.00
   2  1089.24 1085.62 1078.96 6999.00 6999.00 1071.60 1070.86 1070.38 6999.00 6999.00
   3  6999.00 1077.28 1074.00 1069.65 1070.00 1069.26 1067.81 1067.80 6999.00 6999.00
   4  1067.82 1068.30 1066.38 1062.66 1061.49 1060.29 1061.15 1064.34 1063.70 6999.00
   5  1063.68 1061.22 1058.40 1056.12 1055.88 1056.67 1056.75 1059.02 1062.67 1065.22
   6  1058.99 1055.26 1051.82 1049.36 1049.78 1051.90 1053.54 1056.14 1059.18 1063.61
   7  1055.33 1049.58 1045.87 1043.49 1044.29 1046.82 1049.65 1052.33 1054.05 6999.00
   8  6999.00 1042.24 1039.80 1037.86 1038.93 1041.67 1043.84 1046.89 1049.11 6999.00
   9  6999.00 1035.30 1033.84 1032.56 1033.95 1036.84 1038.03 1040.43 1043.70 6999.00
  10  6999.00 1028.29 1027.98 1027.92 1029.55 1031.98 1033.33 1035.83 1039.94 1044.37
  11  6999.00 1019.58 1020.94 1024.00 1026.08 1028.32 1029.88 1032.57 1036.22 6999.00
  12  1001.15 1008.78 1013.89 1018.58 1022.19 1025.44 1027.86 1030.81 1034.76 6999.00
  13   994.88 1000.17 1006.86 1013.01 1018.81 1024.39 1029.20 1034.26 1036.35 6999.00
  14  6999.00 1005.81 1011.47 1016.19 1021.22 1026.06 1030.48 1035.34 1039.49 6999.00
  15  6999.00 6999.00 1018.83 1021.82 1025.56 1028.54 6999.00 6999.00 6999.00 6999.00

 HEAD WILL BE SAVED ON UNIT   58 AT END OF TIME STEP     3 IN STRESS PERIOD      2



  -------------------------------------------------------------------------------------
  VOLUMETRIC BUDGET FOR ENTIRE MODEL AT END OF TIME STEP    3 IN STRESS PERIOD      2
  -------------------------------------------------------------------------------------

     CUMULATIVE VOLUMES      L**3       RATES FOR THIS TIME STEP      L**3/T
     ------------------                 ------------------------

           IN:                                      IN:
           ---                                      ---
             STORAGE =          11.2782               STORAGE =       3.2635E-05
       CONSTANT HEAD =           0.0000         CONSTANT HEAD =           0.0000
               WELLS =           0.0000                 WELLS =           0.0000
     HEAD DEP BOUNDS =      609125.8597       HEAD DEP BOUNDS =           0.2095
      STREAM LEAKAGE =   128094227.9324        STREAM LEAKAGE =          43.9538
        UZF RECHARGE =    24904612.5525          UZF RECHARGE =           9.5125
               GW ET =           0.0000                 GW ET =           0.0000
     SURFACE LEAKAGE =           0.0000       SURFACE LEAKAGE =           0.0000

            TOTAL IN =   153607977.6228              TOTAL IN =          53.6758

          OUT:                                     OUT:
          ----                                     ----
             STORAGE =     2139196.6704               STORAGE =           7.6102
       CONSTANT HEAD =           0.0000         CONSTANT HEAD =           0.0000
               WELLS =    58035606.2707                 WELLS =          20.0000
     HEAD DEP BOUNDS =      757950.3033       HEAD DEP BOUNDS =           0.2615
      STREAM LEAKAGE =    35259167.4110        STREAM LEAKAGE =          12.2266
        UZF RECHARGE =           0.0000          UZF RECHARGE =           0.0000
               GW ET =    57414964.6028                 GW ET =          13.5693
     SURFACE LEAKAGE =           0.0000       SURFACE LEAKAGE =           0.0000

           TOTAL OUT =   153606885.2582             TOTAL OUT =          53.6675

            IN - OUT =        1092.3646              IN - OUT =       8.3044E-03

 PERCENT DISCREPANCY =           0.00     PERCENT DISCREPANCY =           0.02


          TIME SUMMARY AT END OF TIME STEP     3 IN STRESS PERIOD      2
                    SECONDS     MINUTES      HOURS       DAYS        YEARS
                    -----------------------------------------------------------
   TIME STEP LENGTH 1.00083E+05  1668.0      27.801      1.1584     3.17143E-03
 STRESS PERIOD TIME 2.73780E+05  4563.0      76.050      3.1688     8.67557E-03
         TOTAL TIME 2.90178E+06  48363.      806.05      33.585     9.19519E-02
 
 
 SOLVING FOR HEAD 
     6 ITERATIONS FOR TIME STEP   4 IN STRESS PERIOD    2

 MAXIMUM HEAD CHANGE FOR EACH ITERATION:

    HEAD CHANGE   HEAD CHANGE   HEAD CHANGE   HEAD CHANGE   HEAD CHANGE
  LAYER,ROW,COL LAYER,ROW,COL LAYER,ROW,COL LAYER,ROW,COL LAYER,ROW,COL
 ----------------------------------------------------------------------
     0.9789E-02    0.3612E-02    0.1407E-02    0.5482E-03    0.2135E-03
  (  1, 12,  8) (  1,  3,  5) (  1,  3,  5) (  1,  3,  5) (  1,  3,  5)
     0.8313E-04
  (  1,  3,  5)


 OUTPUT CONTROL WAS SPECIFIED FOR A NONEXISTENT TIME STEP
 OR OUTPUT CONTROL DATA ARE NOT ENTERED IN ASCENDING ORDER
 OUTPUT CONTROL STRESS PERIOD      2   TIME STEP     1
 MODEL STRESS PERIOD      2   TIME STEP     4
 APPLYING THE SPECIFIED OUTPUT CONTROL TO THE CURRENT TIME STEP

 OUTPUT CONTROL FOR STRESS PERIOD      2   TIME STEP     4
    PRINT BUDGET
    SAVE BUDGET

           WELLS   PERIOD 2   STEP 4
WELL          1   LAYER          1   ROW          6   COL          4   RATE -2.0
WELL          2   LAYER          1   ROW          6   COL          5   RATE -2.0
WELL          3   LAYER          1   ROW          7   COL          4   RATE -2.0
WELL          4   LAYER          1   ROW          7   COL          5   RATE -2.0
WELL          5   LAYER          1   ROW          8   COL          4   RATE -2.0
WELL          6   LAYER          1   ROW          8   COL          5   RATE -2.0
WELL          7   LAYER          1   ROW          9   COL          4   RATE -2.0
WELL          8   LAYER          1   ROW          9   COL          5   RATE -2.0
WELL          9   LAYER          1   ROW         10   COL          4   RATE -2.0
WELL         10   LAYER          1   ROW         10   COL          5   RATE -2.0

  HEAD DEP BOUNDS   PERIOD    2   STEP   4
 BOUNDARY      1   LAYER   1   ROW    13   COL     1   RATE   -0.261548       COND    0.380000E-01
 BOUNDARY      2   LAYER   1   ROW    14   COL     9   RATE    0.209332       COND    0.380000E-01



 STREAM LISTING     PERIOD      2   STEP        4

 LAYER ROW COL. STREAM  RCH.  FLOW INTO     FLOW TO   FLOW OUT OF   OVRLND.     DIRECT     STREAM       STREAM     STREAM     STREAM   STREAMBED  STREAMBED  STREAMBED
                SEG.NO.  NO.  STRM. RCH.    AQUIFER    STRM. RCH.    RUNOFF     PRECIP       ET          HEAD       DEPTH      WIDTH   CONDCTNC.   GRADIENT  ELEVATION

   1    1    1     1     1    2.5000E+01  1.0689E+00   2.3931E+01  0.000E+00  0.000E+00  0.000E+00  1.09422E+03  1.172E+00  1.296E+01  5.830E-01  6.111E-01  1.093E+03
   1    2    2     1     2    2.3931E+01  3.1326E+00   2.0799E+01  0.000E+00  0.000E+00  0.000E+00  1.08920E+03  1.139E+00  1.252E+01  8.765E-01  1.191E+00  1.088E+03
   1    3    3     1     3    2.0799E+01  2.8965E+00   1.7902E+01  0.000E+00  0.000E+00  0.000E+00  1.08351E+03  1.090E+00  1.180E+01  7.083E-01  1.363E+00  1.082E+03
   1    3    4     1     4    1.7902E+01  2.4599E+00   1.5442E+01  0.000E+00  0.000E+00  0.000E+00  1.07845E+03  1.044E+00  1.096E+01  6.083E-01  1.348E+00  1.077E+03
   1    4    5     2     1    5.4422E+00  2.6589E+00   2.7833E+00  0.000E+00  0.000E+00  0.000E+00  1.07234E+03  4.089E-01  1.200E+01  7.800E-01  1.136E+00  1.072E+03
   1    5    6     2     2    2.7833E+00  1.9499E+00   8.3341E-01  0.000E+00  0.000E+00  0.000E+00  1.06676E+03  2.498E-01  1.200E+01  6.000E-01  1.083E+00  1.067E+03
   1    6    6     2     3    8.3341E-01  8.3341E-01   0.0000E+00  0.000E+00  0.000E+00  0.000E+00  1.06183E+03  3.531E-02  1.200E+01  6.000E-01  1.012E+00  1.062E+03
   1    7    6     2     4    0.0000E+00  0.0000E+00   0.0000E+00  0.000E+00  0.000E+00  0.000E+00  1.05708E+03  0.000E+00  1.200E+01  6.000E-01  1.000E+00  1.057E+03
   1    8    6     2     5    0.0000E+00  0.0000E+00   0.0000E+00  0.000E+00  0.000E+00  0.000E+00  1.05236E+03  0.000E+00  1.200E+01  6.000E-01  1.000E+00  1.052E+03
   1    3    5     3     1    1.0000E+01  2.8252E+00   7.1748E+00  0.000E+00  0.000E+00  0.000E+00  1.07555E+03  1.909E+00  9.636E+00  7.227E-01  1.955E+00  1.074E+03
   1    3    6     3     2    7.1748E+00  2.2479E+00   4.9269E+00  0.000E+00  0.000E+00  0.000E+00  1.07264E+03  1.727E+00  8.909E+00  6.682E-01  1.682E+00  1.071E+03
   1    3    7     3     3    4.9269E+00  1.1381E+00   3.7888E+00  0.000E+00  0.000E+00  0.000E+00  1.06987E+03  1.555E+00  8.218E+00  5.547E-01  1.026E+00  1.068E+03
   1    4    8     3     4    3.7888E+00  1.6574E+00   2.1315E+00  0.000E+00  0.000E+00  0.000E+00  1.06682E+03  1.364E+00  7.455E+00  6.709E-01  1.235E+00  1.065E+03
   1    5    8     3     5    2.1315E+00  1.5789E+00   5.5251E-01  0.000E+00  0.000E+00  0.000E+00  1.06362E+03  1.164E+00  6.655E+00  4.991E-01  1.582E+00  1.062E+03
   1    6    8     3     6    5.5251E-01  5.5251E-01   0.0000E+00  0.000E+00  0.000E+00  0.000E+00  1.06158E+03  0.000E+00  6.145E+00  1.844E-01  1.518E+00  1.061E+03
   1    5   10     4     1    1.0000E+01  9.0525E-01   9.0947E+00  0.000E+00  0.000E+00  0.000E+00  1.07835E+03  6.210E-01  1.000E+01  2.500E-01  1.207E+00  1.078E+03
   1    5    9     4     2    9.0947E+00  1.7835E+00   7.3113E+00  0.000E+00  0.000E+00  0.000E+00  1.07148E+03  5.670E-01  1.000E+01  5.000E-01  1.189E+00  1.071E+03
   1    6    8     4     3    7.3113E+00  1.2257E+00   6.0855E+00  0.000E+00  0.000E+00  0.000E+00  1.06368E+03  5.021E-01  1.000E+01  3.500E-01  1.167E+00  1.063E+03
   1    6    8     5     1    6.0855E+00  1.0216E+00   5.0639E+00  0.000E+00  0.000E+00  0.000E+00  1.05855E+03  5.474E-01  1.065E+01  4.262E-01  7.991E-01  1.058E+03
   1    7    7     5     2    5.0639E+00  1.5882E+00   3.4758E+00  0.000E+00  0.000E+00  0.000E+00  1.05400E+03  4.986E-01  9.079E+00  4.539E-01  1.166E+00  1.054E+03
   1    8    7     5     3    3.4758E+00  8.9044E-01   2.5853E+00  0.000E+00  0.000E+00  0.000E+00  1.04969E+03  4.422E-01  7.391E+00  2.587E-01  1.147E+00  1.049E+03
   1    8    6     5     4    2.5853E+00  5.3527E-01   2.0501E+00  0.000E+00  0.000E+00  0.000E+00  1.04665E+03  4.026E-01  6.292E+00  1.573E-01  1.134E+00  1.046E+03
   1    9    6     6     1    2.0501E+00  1.9121E+00   1.3799E-01  0.000E+00  0.000E+00  0.000E+00  1.04291E+03  1.868E-01  1.200E+01  6.000E-01  1.062E+00  1.043E+03
   1   10    7     6     2    1.3799E-01  1.3799E-01   0.0000E+00  0.000E+00  0.000E+00  0.000E+00  1.03819E+03  1.214E-02  1.200E+01  6.000E-01  1.004E+00  1.038E+03
   1   11    7     6     3    0.0000E+00  0.0000E+00   0.0000E+00  0.000E+00  0.000E+00  0.000E+00  1.03364E+03  0.000E+00  1.200E+01  6.000E-01  1.000E+00  1.034E+03
   1   12    7     6     4    0.0000E+00  0.0000E+00   0.0000E+00  0.000E+00  0.000E+00  0.000E+00  1.02909E+03  0.000E+00  1.200E+01  6.000E-01  4.085E-01  1.029E+03
   1   13    7     6     5    0.0000E+00 -7.6549E-01   7.6549E-01  0.000E+00  0.000E+00  0.000E+00  1.02601E+03  9.948E-02  1.200E+01  2.400E-01 -1.063E+00  1.026E+03
   1   14    9     7     1    1.5000E+02  2.0974E+00   1.4790E+02  0.000E+00  0.000E+00  0.000E+00  1.03987E+03  2.286E+00  5.529E+01  5.592E+00  1.250E-01  1.038E+03
   1   13    8     7     2    1.4790E+02  3.1263E+00   1.4478E+02  0.000E+00  0.000E+00  0.000E+00  1.03477E+03  2.272E+00  5.522E+01  6.144E+00  1.696E-01  1.032E+03
   1   13    7     7     3    1.4478E+02  2.6632E+00   1.4211E+02  0.000E+00  0.000E+00  0.000E+00  1.02968E+03  2.256E+00  5.515E+01  5.578E+00  1.592E-01  1.027E+03
   1   13    6     8     1    1.4288E+02  1.0032E+00   1.4188E+02  0.000E+00  0.000E+00  0.000E+00  1.02464E+03  2.762E+00  4.005E+01  4.082E+00  8.193E-02  1.022E+03
   1   13    5     8     2    1.4188E+02 -1.7378E+00   1.4361E+02  0.000E+00  0.000E+00  0.000E+00  1.01839E+03  2.765E+00  4.009E+01  4.085E+00 -1.418E-01  1.016E+03
   1   13    4     8     3    1.4361E+02 -3.5046E+00   1.4712E+02  0.000E+00  0.000E+00  0.000E+00  1.01216E+03  2.784E+00  4.037E+01  4.113E+00 -2.840E-01  1.009E+03
   1   13    3     8     4    1.4712E+02 -3.8504E+00   1.5097E+02  0.000E+00  0.000E+00  0.000E+00  1.00594E+03  2.810E+00  4.075E+01  4.152E+00 -3.091E-01  1.003E+03
   1   13    2     8     5    1.5097E+02 -1.9717E+00   1.5294E+02  0.000E+00  0.000E+00  0.000E+00  9.99706E+02  2.831E+00  4.104E+01  4.182E+00 -1.571E-01  9.969E+02
   1   13    1     8     6    1.5294E+02 -4.2522E-01   1.5337E+02  0.000E+00  0.000E+00  0.000E+00  9.94714E+02  2.839E+00  4.116E+01  2.517E+00 -5.632E-02  9.919E+02



 UBDSV3 SAVING "           GW ET" ON UNIT 61 AT TIME STEP 4, STRESS PERIOD 2
 UBDSV3 SAVING "    UZF RECHARGE" ON UNIT 61 AT TIME STEP 4, STRESS PERIOD 2
 UBDSV3 SAVING " SURFACE LEAKAGE" ON UNIT 61 AT TIME STEP 4, STRESS PERIOD 2
 UBDSV3 SAVING "       HORT+DUNN" ON UNIT 61 AT TIME STEP 4, STRESS PERIOD 2
 UBDSV3 SAVING "  STORAGE CHANGE" ON UNIT 61 AT TIME STEP 4, STRESS PERIOD 2


UNSATURATED ZONE PACKAGE VOLUMETRIC BUDGET FOR  TIME STEP     4 STRESS PERIOD    2
  ------------------------------------------------------------------------------



     CUMULATIVE VOLUMES      L**3       RATES FOR THIS TIME STEP      L**3/T
     ------------------                 ------------------------

           IN:                                      IN:
           ---                                      ---
        INFILTRATION =     4.8298783E+7          INFILTRATION =       67.8000000

          OUT:                                     OUT:
          ----                                     ----
              UZF ET =     4.7808136E+7                UZF ET =        124.52191
        UZF RECHARGE =     2.5939177E+7          UZF RECHARGE =        9.3973505

            IN - OUT =    -2.5448531E+7              IN - OUT =      -66.1192592

          STORAGE:                                 STORAGE:
          --------                                 --------
      STORAGE CHANGE =    -2.5442859E+7        STORAGE CHANGE =      -66.1034547

 PERCENT DISCREPANCY =          -0.00     PERCENT DISCREPANCY =          -0.01




 PERCENT DISCREPANCY IS DIFFERENCE BETWEEN IN-OUT MINUS CHANGE IN STORAGE
 DIVIDED BY THE AVERAGE OF IN AND OUT TIMES 100






  -------------------------------------------------------------------------------------
  VOLUMETRIC BUDGET FOR ENTIRE MODEL AT END OF TIME STEP    4 IN STRESS PERIOD      2
  -------------------------------------------------------------------------------------

     CUMULATIVE VOLUMES      L**3       RATES FOR THIS TIME STEP      L**3/T
     ------------------                 ------------------------

           IN:                                      IN:
           ---                                      ---
             STORAGE =          13.6320               STORAGE =       2.1380E-05
       CONSTANT HEAD =           0.0000         CONSTANT HEAD =           0.0000
               WELLS =           0.0000                 WELLS =           0.0000
     HEAD DEP BOUNDS =      632171.4111       HEAD DEP BOUNDS =           0.2093
      STREAM LEAKAGE =   132926137.9025        STREAM LEAKAGE =          43.8901
        UZF RECHARGE =    25939177.3700          UZF RECHARGE =           9.3974
               GW ET =           0.0000                 GW ET =           0.0000
     SURFACE LEAKAGE =           0.0000       SURFACE LEAKAGE =           0.0000

            TOTAL IN =   159497500.3155              TOTAL IN =          53.4968

          OUT:                                     OUT:
          ----                                     ----
             STORAGE =     2952565.5620               STORAGE =           7.3881
       CONSTANT HEAD =           0.0000         CONSTANT HEAD =           0.0000
               WELLS =    60237428.6110                 WELLS =          20.0000
     HEAD DEP BOUNDS =      786744.4121       HEAD DEP BOUNDS =           0.2615
      STREAM LEAKAGE =    36608360.7073        STREAM LEAKAGE =          12.2552
        UZF RECHARGE =           0.0000          UZF RECHARGE =           0.0000
               GW ET =    58910450.0380                 GW ET =          13.5841
     SURFACE LEAKAGE =           0.0000       SURFACE LEAKAGE =           0.0000

           TOTAL OUT =   159495549.3304             TOTAL OUT =          53.4890

            IN - OUT =        1950.9851              IN - OUT =       7.7992E-03

 PERCENT DISCREPANCY =           0.00     PERCENT DISCREPANCY =           0.01


          TIME SUMMARY AT END OF TIME STEP     4 IN STRESS PERIOD      2
                    SECONDS     MINUTES      HOURS       DAYS        YEARS
                    -----------------------------------------------------------
   TIME STEP LENGTH 1.10091E+05  1834.9      30.581      1.2742     3.48858E-03
 STRESS PERIOD TIME 3.83871E+05  6397.9      106.63      4.4430     1.21642E-02
         TOTAL TIME 3.01187E+06  50198.      836.63      34.860     9.54404E-02
 
 
 SOLVING FOR HEAD 
     6 ITERATIONS FOR TIME STEP   5 IN STRESS PERIOD    2

 MAXIMUM HEAD CHANGE FOR EACH ITERATION:

    HEAD CHANGE   HEAD CHANGE   HEAD CHANGE   HEAD CHANGE   HEAD CHANGE
  LAYER,ROW,COL LAYER,ROW,COL LAYER,ROW,COL LAYER,ROW,COL LAYER,ROW,COL
 ----------------------------------------------------------------------
     0.1044E-01    0.3693E-02    0.1426E-02    0.5511E-03    0.2127E-03
  (  1, 12,  8) (  1,  3,  5) (  1,  3,  5) (  1,  3,  5) (  1,  3,  5)
     0.8214E-04
  (  1,  3,  5)


 OUTPUT CONTROL FOR STRESS PERIOD      2   TIME STEP     5
    PRINT BUDGET
    SAVE BUDGET

           WELLS   PERIOD 2   STEP 5
WELL          1   LAYER          1   ROW          6   COL          4   RATE -2.0
WELL          2   LAYER          1   ROW          6   COL          5   RATE -2.0
WELL          3   LAYER          1   ROW          7   COL          4   RATE -2.0
WELL          4   LAYER          1   ROW          7   COL          5   RATE -2.0
WELL          5   LAYER          1   ROW          8   COL          4   RATE -2.0
WELL          6   LAYER          1   ROW          8   COL          5   RATE -2.0
WELL          7   LAYER          1   ROW          9   COL          4   RATE -2.0
WELL          8   LAYER          1   ROW          9   COL          5   RATE -2.0
WELL          9   LAYER          1   ROW         10   COL          4   RATE -2.0
WELL         10   LAYER          1   ROW         10   COL          5   RATE -2.0

  HEAD DEP BOUNDS   PERIOD    2   STEP   5
 BOUNDARY      1   LAYER   1   ROW    13   COL     1   RATE   -0.261647       COND    0.380000E-01
 BOUNDARY      2   LAYER   1   ROW    14   COL     9   RATE    0.209196       COND    0.380000E-01



 STREAM LISTING     PERIOD      2   STEP        5

 LAYER ROW COL. STREAM  RCH.  FLOW INTO     FLOW TO   FLOW OUT OF   OVRLND.     DIRECT     STREAM       STREAM     STREAM     STREAM   STREAMBED  STREAMBED  STREAMBED
                SEG.NO.  NO.  STRM. RCH.    AQUIFER    STRM. RCH.    RUNOFF     PRECIP       ET          HEAD       DEPTH      WIDTH   CONDCTNC.   GRADIENT  ELEVATION

   1    1    1     1     1    2.5000E+01  1.0661E+00   2.3934E+01  0.000E+00  0.000E+00  0.000E+00  1.09422E+03  1.172E+00  1.296E+01  5.830E-01  6.095E-01  1.093E+03
   1    2    2     1     2    2.3934E+01  3.1269E+00   2.0807E+01  0.000E+00  0.000E+00  0.000E+00  1.08920E+03  1.140E+00  1.252E+01  8.765E-01  1.189E+00  1.088E+03
   1    3    3     1     3    2.0807E+01  2.8972E+00   1.7910E+01  0.000E+00  0.000E+00  0.000E+00  1.08351E+03  1.090E+00  1.181E+01  7.084E-01  1.363E+00  1.082E+03
   1    3    4     1     4    1.7910E+01  2.4605E+00   1.5449E+01  0.000E+00  0.000E+00  0.000E+00  1.07845E+03  1.044E+00  1.096E+01  6.085E-01  1.348E+00  1.077E+03
   1    4    5     2     1    5.4493E+00  2.6593E+00   2.7900E+00  0.000E+00  0.000E+00  0.000E+00  1.07234E+03  4.093E-01  1.200E+01  7.800E-01  1.136E+00  1.072E+03
   1    5    6     2     2    2.7900E+00  1.9502E+00   8.3984E-01  0.000E+00  0.000E+00  0.000E+00  1.06676E+03  2.503E-01  1.200E+01  6.000E-01  1.083E+00  1.067E+03
   1    6    6     2     3    8.3984E-01  8.3984E-01   0.0000E+00  0.000E+00  0.000E+00  0.000E+00  1.06183E+03  3.547E-02  1.200E+01  6.000E-01  1.012E+00  1.062E+03
   1    7    6     2     4    0.0000E+00  0.0000E+00   0.0000E+00  0.000E+00  0.000E+00  0.000E+00  1.05708E+03  0.000E+00  1.200E+01  6.000E-01  1.000E+00  1.057E+03
   1    8    6     2     5    0.0000E+00  0.0000E+00   0.0000E+00  0.000E+00  0.000E+00  0.000E+00  1.05236E+03  0.000E+00  1.200E+01  6.000E-01  1.000E+00  1.052E+03
   1    3    5     3     1    1.0000E+01  2.8252E+00   7.1748E+00  0.000E+00  0.000E+00  0.000E+00  1.07555E+03  1.909E+00  9.636E+00  7.227E-01  1.955E+00  1.074E+03
   1    3    6     3     2    7.1748E+00  2.2393E+00   4.9355E+00  0.000E+00  0.000E+00  0.000E+00  1.07264E+03  1.727E+00  8.909E+00  6.682E-01  1.676E+00  1.071E+03
   1    3    7     3     3    4.9355E+00  1.1315E+00   3.8040E+00  0.000E+00  0.000E+00  0.000E+00  1.06987E+03  1.555E+00  8.218E+00  5.547E-01  1.020E+00  1.068E+03
   1    4    8     3     4    3.8040E+00  1.6494E+00   2.1547E+00  0.000E+00  0.000E+00  0.000E+00  1.06682E+03  1.364E+00  7.455E+00  6.709E-01  1.229E+00  1.065E+03
   1    5    8     3     5    2.1547E+00  1.5789E+00   5.7571E-01  0.000E+00  0.000E+00  0.000E+00  1.06362E+03  1.164E+00  6.655E+00  4.991E-01  1.582E+00  1.062E+03
   1    6    8     3     6    5.7571E-01  5.5980E-01   1.5919E-02  0.000E+00  0.000E+00  0.000E+00  1.06158E+03  1.036E+00  6.145E+00  1.844E-01  1.518E+00  1.061E+03
   1    5   10     4     1    1.0000E+01  9.0525E-01   9.0947E+00  0.000E+00  0.000E+00  0.000E+00  1.07835E+03  6.210E-01  1.000E+01  2.500E-01  1.207E+00  1.078E+03
   1    5    9     4     2    9.0947E+00  1.7835E+00   7.3113E+00  0.000E+00  0.000E+00  0.000E+00  1.07148E+03  5.670E-01  1.000E+01  5.000E-01  1.189E+00  1.071E+03
   1    6    8     4     3    7.3113E+00  1.2257E+00   6.0855E+00  0.000E+00  0.000E+00  0.000E+00  1.06368E+03  5.021E-01  1.000E+01  3.500E-01  1.167E+00  1.063E+03
   1    6    8     5     1    6.1015E+00  1.0198E+00   5.0816E+00  0.000E+00  0.000E+00  0.000E+00  1.05855E+03  5.480E-01  1.067E+01  4.269E-01  7.962E-01  1.058E+03
   1    7    7     5     2    5.0816E+00  1.5920E+00   3.4897E+00  0.000E+00  0.000E+00  0.000E+00  1.05400E+03  4.993E-01  9.099E+00  4.549E-01  1.166E+00  1.054E+03
   1    8    7     5     3    3.4897E+00  8.9283E-01   2.5968E+00  0.000E+00  0.000E+00  0.000E+00  1.04969E+03  4.429E-01  7.409E+00  2.593E-01  1.148E+00  1.049E+03
   1    8    6     5     4    2.5968E+00  5.3684E-01   2.0600E+00  0.000E+00  0.000E+00  0.000E+00  1.04665E+03  4.033E-01  6.310E+00  1.577E-01  1.134E+00  1.046E+03
   1    9    6     6     1    2.0600E+00  1.9127E+00   1.4733E-01  0.000E+00  0.000E+00  0.000E+00  1.04292E+03  1.878E-01  1.200E+01  6.000E-01  1.063E+00  1.043E+03
   1   10    7     6     2    1.4733E-01  1.4733E-01   0.0000E+00  0.000E+00  0.000E+00  0.000E+00  1.03819E+03  1.262E-02  1.200E+01  6.000E-01  1.004E+00  1.038E+03
   1   11    7     6     3    0.0000E+00  0.0000E+00   0.0000E+00  0.000E+00  0.000E+00  0.000E+00  1.03364E+03  0.000E+00  1.200E+01  6.000E-01  1.000E+00  1.034E+03
   1   12    7     6     4    0.0000E+00  0.0000E+00   0.0000E+00  0.000E+00  0.000E+00  0.000E+00  1.02909E+03  0.000E+00  1.200E+01  6.000E-01  4.064E-01  1.029E+03
   1   13    7     6     5    0.0000E+00 -7.6610E-01   7.6610E-01  0.000E+00  0.000E+00  0.000E+00  1.02601E+03  9.952E-02  1.200E+01  2.400E-01 -1.064E+00  1.026E+03
   1   14    9     7     1    1.5000E+02  2.0777E+00   1.4792E+02  0.000E+00  0.000E+00  0.000E+00  1.03987E+03  2.286E+00  5.529E+01  5.592E+00  1.238E-01  1.038E+03
   1   13    8     7     2    1.4792E+02  3.1082E+00   1.4481E+02  0.000E+00  0.000E+00  0.000E+00  1.03477E+03  2.272E+00  5.522E+01  6.144E+00  1.686E-01  1.032E+03
   1   13    7     7     3    1.4481E+02  2.6501E+00   1.4216E+02  0.000E+00  0.000E+00  0.000E+00  1.02968E+03  2.256E+00  5.515E+01  5.578E+00  1.584E-01  1.027E+03
   1   13    6     8     1    1.4293E+02  9.9324E-01   1.4194E+02  0.000E+00  0.000E+00  0.000E+00  1.02464E+03  2.763E+00  4.006E+01  4.082E+00  8.110E-02  1.022E+03
   1   13    5     8     2    1.4194E+02 -1.7423E+00   1.4368E+02  0.000E+00  0.000E+00  0.000E+00  1.01839E+03  2.765E+00  4.010E+01  4.086E+00 -1.421E-01  1.016E+03
   1   13    4     8     3    1.4368E+02 -3.5070E+00   1.4719E+02  0.000E+00  0.000E+00  0.000E+00  1.01216E+03  2.784E+00  4.037E+01  4.114E+00 -2.841E-01  1.009E+03
   1   13    3     8     4    1.4719E+02 -3.8536E+00   1.5104E+02  0.000E+00  0.000E+00  0.000E+00  1.00594E+03  2.811E+00  4.075E+01  4.153E+00 -3.093E-01  1.003E+03
   1   13    2     8     5    1.5104E+02 -1.9851E+00   1.5302E+02  0.000E+00  0.000E+00  0.000E+00  9.99706E+02  2.831E+00  4.105E+01  4.183E+00 -1.582E-01  9.969E+02
   1   13    1     8     6    1.5302E+02 -4.3030E-01   1.5346E+02  0.000E+00  0.000E+00  0.000E+00  9.94715E+02  2.840E+00  4.117E+01  2.517E+00 -5.698E-02  9.919E+02



 UBDSV3 SAVING "           GW ET" ON UNIT 61 AT TIME STEP 5, STRESS PERIOD 2
 UBDSV3 SAVING "    UZF RECHARGE" ON UNIT 61 AT TIME STEP 5, STRESS PERIOD 2
 UBDSV3 SAVING " SURFACE LEAKAGE" ON UNIT 61 AT TIME STEP 5, STRESS PERIOD 2
 UBDSV3 SAVING "       HORT+DUNN" ON UNIT 61 AT TIME STEP 5, STRESS PERIOD 2
 UBDSV3 SAVING "  STORAGE CHANGE" ON UNIT 61 AT TIME STEP 5, STRESS PERIOD 2


UNSATURATED ZONE PACKAGE VOLUMETRIC BUDGET FOR  TIME STEP     5 STRESS PERIOD    2
  ------------------------------------------------------------------------------



     CUMULATIVE VOLUMES      L**3       RATES FOR THIS TIME STEP      L**3/T
     ------------------                 ------------------------

           IN:                                      IN:
           ---                                      ---
        INFILTRATION =     5.6509378E+7          INFILTRATION =       67.8000000

          OUT:                                     OUT:
          ----                                     ----
              UZF ET =     6.2885854E+7                UZF ET =        124.50610
        UZF RECHARGE =     2.7062755E+7          UZF RECHARGE =        9.2780837

            IN - OUT =    -3.3439231E+7              IN - OUT =      -65.9841878

          STORAGE:                                 STORAGE:
          --------                                 --------
      STORAGE CHANGE =    -3.3431559E+7        STORAGE CHANGE =      -65.9676719

 PERCENT DISCREPANCY =          -0.00     PERCENT DISCREPANCY =          -0.01




 PERCENT DISCREPANCY IS DIFFERENCE BETWEEN IN-OUT MINUS CHANGE IN STORAGE
 DIVIDED BY THE AVERAGE OF IN AND OUT TIMES 100






  -------------------------------------------------------------------------------------
  VOLUMETRIC BUDGET FOR ENTIRE MODEL AT END OF TIME STEP    5 IN STRESS PERIOD      2
  -------------------------------------------------------------------------------------

     CUMULATIVE VOLUMES      L**3       RATES FOR THIS TIME STEP      L**3/T
     ------------------                 ------------------------

           IN:                                      IN:
           ---                                      ---
             STORAGE =          15.8448               STORAGE =       1.8273E-05
       CONSTANT HEAD =           0.0000         CONSTANT HEAD =           0.0000
               WELLS =           0.0000                 WELLS =           0.0000
     HEAD DEP BOUNDS =      657505.0925       HEAD DEP BOUNDS =           0.2092
      STREAM LEAKAGE =   138233868.7842        STREAM LEAKAGE =          43.8292
        UZF RECHARGE =    27062755.4250          UZF RECHARGE =           9.2781
               GW ET =           0.0000                 GW ET =           0.0000
     SURFACE LEAKAGE =           0.0000       SURFACE LEAKAGE =           0.0000

            TOTAL IN =   165954145.1465              TOTAL IN =          53.3165

          OUT:                                     OUT:
          ----                                     ----
             STORAGE =     3820104.1195               STORAGE =           7.1638
       CONSTANT HEAD =           0.0000         CONSTANT HEAD =           0.0000
               WELLS =    62659433.1853                 WELLS =          20.0000
     HEAD DEP BOUNDS =      818429.8642       HEAD DEP BOUNDS =           0.2616
      STREAM LEAKAGE =    38096001.4502        STREAM LEAKAGE =          12.2844
        UZF RECHARGE =           0.0000          UZF RECHARGE =           0.0000
               GW ET =    60557342.8980                 GW ET =          13.5994
     SURFACE LEAKAGE =           0.0000       SURFACE LEAKAGE =           0.0000

           TOTAL OUT =   165951311.5171             TOTAL OUT =          53.3092

            IN - OUT =        2833.6294              IN - OUT =       7.2885E-03

 PERCENT DISCREPANCY =           0.00     PERCENT DISCREPANCY =           0.01


          TIME SUMMARY AT END OF TIME STEP     5 IN STRESS PERIOD      2
                    SECONDS     MINUTES      HOURS       DAYS        YEARS
                    -----------------------------------------------------------
   TIME STEP LENGTH 1.21100E+05  2018.3      33.639      1.4016     3.83743E-03
 STRESS PERIOD TIME 5.04972E+05  8416.2      140.27      5.8446     1.60016E-02
         TOTAL TIME 3.13297E+06  52216.      870.27      36.261     9.92779E-02
 
 
 SOLVING FOR HEAD 
     6 ITERATIONS FOR TIME STEP   6 IN STRESS PERIOD    2

 MAXIMUM HEAD CHANGE FOR EACH ITERATION:

    HEAD CHANGE   HEAD CHANGE   HEAD CHANGE   HEAD CHANGE   HEAD CHANGE
  LAYER,ROW,COL LAYER,ROW,COL LAYER,ROW,COL LAYER,ROW,COL LAYER,ROW,COL
 ----------------------------------------------------------------------
     0.1111E-01    0.3745E-02    0.1433E-02    0.5485E-03    0.2097E-03
  (  1, 12,  8) (  1,  3,  5) (  1,  3,  5) (  1,  3,  5) (  1,  3,  5)
     0.8023E-04
  (  1,  3,  5)


 NO OUTPUT CONTROL FOR STRESS PERIOD      2   TIME STEP     6
 
 SOLVING FOR HEAD 
     6 ITERATIONS FOR TIME STEP   7 IN STRESS PERIOD    2

 MAXIMUM HEAD CHANGE FOR EACH ITERATION:

    HEAD CHANGE   HEAD CHANGE   HEAD CHANGE   HEAD CHANGE   HEAD CHANGE
  LAYER,ROW,COL LAYER,ROW,COL LAYER,ROW,COL LAYER,ROW,COL LAYER,ROW,COL
 ----------------------------------------------------------------------
     0.1179E-01    0.3765E-02    0.1426E-02    0.5401E-03    0.2044E-03
  (  1, 12,  8) (  1,  3,  5) (  1,  3,  5) (  1,  3,  5) (  1,  3,  5)
     0.7737E-04
  (  1,  3,  5)


 NO OUTPUT CONTROL FOR STRESS PERIOD      2   TIME STEP     7
 
 SOLVING FOR HEAD 
     5 ITERATIONS FOR TIME STEP   8 IN STRESS PERIOD    2

 MAXIMUM HEAD CHANGE FOR EACH ITERATION:

    HEAD CHANGE   HEAD CHANGE   HEAD CHANGE   HEAD CHANGE   HEAD CHANGE
  LAYER,ROW,COL LAYER,ROW,COL LAYER,ROW,COL LAYER,ROW,COL LAYER,ROW,COL
 ----------------------------------------------------------------------
     0.1248E-01    0.3747E-02    0.1403E-02    0.5254E-03    0.1965E-03
  (  1, 12,  8) (  1,  3,  5) (  1,  3,  5) (  1,  3,  5) (  1,  3,  5)


 NO OUTPUT CONTROL FOR STRESS PERIOD      2   TIME STEP     8
 
 SOLVING FOR HEAD 
     5 ITERATIONS FOR TIME STEP   9 IN STRESS PERIOD    2

 MAXIMUM HEAD CHANGE FOR EACH ITERATION:

    HEAD CHANGE   HEAD CHANGE   HEAD CHANGE   HEAD CHANGE   HEAD CHANGE
  LAYER,ROW,COL LAYER,ROW,COL LAYER,ROW,COL LAYER,ROW,COL LAYER,ROW,COL
 ----------------------------------------------------------------------
     0.1314E-01    0.3726E-02    0.1343E-02    0.4964E-03    0.1834E-03
  (  1, 12,  8) (  1, 12,  8) (  1,  3,  5) (  1,  3,  5) (  1,  3,  5)


 NO OUTPUT CONTROL FOR STRESS PERIOD      2   TIME STEP     9
 
 SOLVING FOR HEAD 
     5 ITERATIONS FOR TIME STEP  10 IN STRESS PERIOD    2

 MAXIMUM HEAD CHANGE FOR EACH ITERATION:

    HEAD CHANGE   HEAD CHANGE   HEAD CHANGE   HEAD CHANGE   HEAD CHANGE
  LAYER,ROW,COL LAYER,ROW,COL LAYER,ROW,COL LAYER,ROW,COL LAYER,ROW,COL
 ----------------------------------------------------------------------
     0.1382E-01    0.3853E-02    0.1286E-02    0.4725E-03    0.1870E-03
  (  1, 12,  8) (  1, 12,  8) (  1,  3,  5) (  1, 13,  4) (  1, 13,  4)


 OUTPUT CONTROL FOR STRESS PERIOD      2   TIME STEP    10
    PRINT BUDGET
    SAVE BUDGET

           WELLS   PERIOD 2   STEP 10
WELL          1   LAYER          1   ROW          6   COL          4   RATE -2.0
WELL          2   LAYER          1   ROW          6   COL          5   RATE -2.0
WELL          3   LAYER          1   ROW          7   COL          4   RATE -2.0
WELL          4   LAYER          1   ROW          7   COL          5   RATE -2.0
WELL          5   LAYER          1   ROW          8   COL          4   RATE -2.0
WELL          6   LAYER          1   ROW          8   COL          5   RATE -2.0
WELL          7   LAYER          1   ROW          9   COL          4   RATE -2.0
WELL          8   LAYER          1   ROW          9   COL          5   RATE -2.0
WELL          9   LAYER          1   ROW         10   COL          4   RATE -2.0
WELL         10   LAYER          1   ROW         10   COL          5   RATE -2.0

  HEAD DEP BOUNDS   PERIOD    2   STEP  10
 BOUNDARY      1   LAYER   1   ROW    13   COL     1   RATE   -0.262146       COND    0.380000E-01
 BOUNDARY      2   LAYER   1   ROW    14   COL     9   RATE    0.208680       COND    0.380000E-01



 STREAM LISTING     PERIOD      2   STEP       10

 LAYER ROW COL. STREAM  RCH.  FLOW INTO     FLOW TO   FLOW OUT OF   OVRLND.     DIRECT     STREAM       STREAM     STREAM     STREAM   STREAMBED  STREAMBED  STREAMBED
                SEG.NO.  NO.  STRM. RCH.    AQUIFER    STRM. RCH.    RUNOFF     PRECIP       ET          HEAD       DEPTH      WIDTH   CONDCTNC.   GRADIENT  ELEVATION

   1    1    1     1     1    2.5000E+01  1.0497E+00   2.3950E+01  0.000E+00  0.000E+00  0.000E+00  1.09422E+03  1.172E+00  1.296E+01  5.831E-01  6.001E-01  1.093E+03
   1    2    2     1     2    2.3950E+01  3.0959E+00   2.0854E+01  0.000E+00  0.000E+00  0.000E+00  1.08920E+03  1.140E+00  1.253E+01  8.770E-01  1.177E+00  1.088E+03
   1    3    3     1     3    2.0854E+01  2.9011E+00   1.7953E+01  0.000E+00  0.000E+00  0.000E+00  1.08351E+03  1.090E+00  1.182E+01  7.092E-01  1.363E+00  1.082E+03
   1    3    4     1     4    1.7953E+01  2.4640E+00   1.5489E+01  0.000E+00  0.000E+00  0.000E+00  1.07845E+03  1.044E+00  1.098E+01  6.092E-01  1.348E+00  1.077E+03
   1    4    5     2     1    5.4893E+00  2.6611E+00   2.8282E+00  0.000E+00  0.000E+00  0.000E+00  1.07235E+03  4.116E-01  1.200E+01  7.800E-01  1.137E+00  1.072E+03
   1    5    6     2     2    2.8282E+00  1.9520E+00   8.7618E-01  0.000E+00  0.000E+00  0.000E+00  1.06676E+03  2.534E-01  1.200E+01  6.000E-01  1.084E+00  1.067E+03
   1    6    6     2     3    8.7618E-01  8.7618E-01   0.0000E+00  0.000E+00  0.000E+00  0.000E+00  1.06183E+03  3.638E-02  1.200E+01  6.000E-01  1.012E+00  1.062E+03
   1    7    6     2     4    0.0000E+00  0.0000E+00   0.0000E+00  0.000E+00  0.000E+00  0.000E+00  1.05708E+03  0.000E+00  1.200E+01  6.000E-01  1.000E+00  1.057E+03
   1    8    6     2     5    0.0000E+00  0.0000E+00   0.0000E+00  0.000E+00  0.000E+00  0.000E+00  1.05236E+03  0.000E+00  1.200E+01  6.000E-01  1.000E+00  1.052E+03
   1    3    5     3     1    1.0000E+01  2.8252E+00   7.1748E+00  0.000E+00  0.000E+00  0.000E+00  1.07555E+03  1.909E+00  9.636E+00  7.227E-01  1.955E+00  1.074E+03
   1    3    6     3     2    7.1748E+00  2.2021E+00   4.9727E+00  0.000E+00  0.000E+00  0.000E+00  1.07264E+03  1.727E+00  8.909E+00  6.682E-01  1.648E+00  1.071E+03
   1    3    7     3     3    4.9727E+00  1.1010E+00   3.8717E+00  0.000E+00  0.000E+00  0.000E+00  1.06987E+03  1.555E+00  8.218E+00  5.547E-01  9.924E-01  1.068E+03
   1    4    8     3     4    3.8717E+00  1.6080E+00   2.2637E+00  0.000E+00  0.000E+00  0.000E+00  1.06682E+03  1.364E+00  7.455E+00  6.709E-01  1.198E+00  1.065E+03
   1    5    8     3     5    2.2637E+00  1.5789E+00   6.8472E-01  0.000E+00  0.000E+00  0.000E+00  1.06362E+03  1.164E+00  6.655E+00  4.991E-01  1.582E+00  1.062E+03
   1    6    8     3     6    6.8472E-01  5.5980E-01   1.2493E-01  0.000E+00  0.000E+00  0.000E+00  1.06158E+03  1.036E+00  6.145E+00  1.844E-01  1.518E+00  1.061E+03
   1    5   10     4     1    1.0000E+01  9.0525E-01   9.0947E+00  0.000E+00  0.000E+00  0.000E+00  1.07835E+03  6.210E-01  1.000E+01  2.500E-01  1.207E+00  1.078E+03
   1    5    9     4     2    9.0947E+00  1.7835E+00   7.3113E+00  0.000E+00  0.000E+00  0.000E+00  1.07148E+03  5.670E-01  1.000E+01  5.000E-01  1.189E+00  1.071E+03
   1    6    8     4     3    7.3113E+00  1.2257E+00   6.0855E+00  0.000E+00  0.000E+00  0.000E+00  1.06368E+03  5.021E-01  1.000E+01  3.500E-01  1.167E+00  1.063E+03
   1    6    8     5     1    6.2105E+00  1.0122E+00   5.1982E+00  0.000E+00  0.000E+00  0.000E+00  1.05855E+03  5.518E-01  1.080E+01  4.321E-01  7.809E-01  1.058E+03
   1    7    7     5     2    5.1982E+00  1.6170E+00   3.5813E+00  0.000E+00  0.000E+00  0.000E+00  1.05400E+03  5.035E-01  9.231E+00  4.615E-01  1.168E+00  1.054E+03
   1    8    7     5     3    3.5813E+00  9.0858E-01   2.6727E+00  0.000E+00  0.000E+00  0.000E+00  1.04970E+03  4.471E-01  7.531E+00  2.636E-01  1.149E+00  1.049E+03
   1    8    6     5     4    2.6727E+00  5.4722E-01   2.1254E+00  0.000E+00  0.000E+00  0.000E+00  1.04666E+03  4.075E-01  6.424E+00  1.606E-01  1.136E+00  1.046E+03
   1    9    6     6     1    2.1254E+00  1.9165E+00   2.0894E-01  0.000E+00  0.000E+00  0.000E+00  1.04292E+03  1.942E-01  1.200E+01  6.000E-01  1.065E+00  1.043E+03
   1   10    7     6     2    2.0894E-01  2.0894E-01   0.0000E+00  0.000E+00  0.000E+00  0.000E+00  1.03820E+03  1.556E-02  1.200E+01  6.000E-01  1.005E+00  1.038E+03
   1   11    7     6     3    0.0000E+00  0.0000E+00   0.0000E+00  0.000E+00  0.000E+00  0.000E+00  1.03364E+03  0.000E+00  1.200E+01  6.000E-01  1.000E+00  1.034E+03
   1   12    7     6     4    0.0000E+00  0.0000E+00   0.0000E+00  0.000E+00  0.000E+00  0.000E+00  1.02909E+03  0.000E+00  1.200E+01  6.000E-01  3.928E-01  1.029E+03
   1   13    7     6     5    0.0000E+00 -7.6862E-01   7.6862E-01  0.000E+00  0.000E+00  0.000E+00  1.02601E+03  9.972E-02  1.200E+01  2.400E-01 -1.068E+00  1.026E+03
   1   14    9     7     1    1.5000E+02  2.0030E+00   1.4800E+02  0.000E+00  0.000E+00  0.000E+00  1.03987E+03  2.286E+00  5.529E+01  5.592E+00  1.194E-01  1.038E+03
   1   13    8     7     2    1.4800E+02  3.0360E+00   1.4496E+02  0.000E+00  0.000E+00  0.000E+00  1.03477E+03  2.273E+00  5.523E+01  6.144E+00  1.647E-01  1.032E+03
   1   13    7     7     3    1.4496E+02  2.5960E+00   1.4237E+02  0.000E+00  0.000E+00  0.000E+00  1.02968E+03  2.257E+00  5.516E+01  5.578E+00  1.551E-01  1.027E+03
   1   13    6     8     1    1.4313E+02  9.4560E-01   1.4219E+02  0.000E+00  0.000E+00  0.000E+00  1.02464E+03  2.764E+00  4.008E+01  4.085E+00  7.717E-02  1.022E+03
   1   13    5     8     2    1.4219E+02 -1.7713E+00   1.4396E+02  0.000E+00  0.000E+00  0.000E+00  1.01839E+03  2.767E+00  4.013E+01  4.089E+00 -1.444E-01  1.016E+03
   1   13    4     8     3    1.4396E+02 -3.6004E+00   1.4756E+02  0.000E+00  0.000E+00  0.000E+00  1.01216E+03  2.787E+00  4.041E+01  4.118E+00 -2.915E-01  1.009E+03
   1   13    3     8     4    1.4756E+02 -3.8699E+00   1.5143E+02  0.000E+00  0.000E+00  0.000E+00  1.00594E+03  2.813E+00  4.079E+01  4.157E+00 -3.103E-01  1.003E+03
   1   13    2     8     5    1.5143E+02 -2.0398E+00   1.5347E+02  0.000E+00  0.000E+00  0.000E+00  9.99709E+02  2.834E+00  4.109E+01  4.188E+00 -1.624E-01  9.969E+02
   1   13    1     8     6    1.5347E+02 -4.5592E-01   1.5393E+02  0.000E+00  0.000E+00  0.000E+00  9.94718E+02  2.843E+00  4.122E+01  2.520E+00 -6.030E-02  9.919E+02



 UBDSV3 SAVING "           GW ET" ON UNIT 61 AT TIME STEP 10, STRESS PERIOD 2
 UBDSV3 SAVING "    UZF RECHARGE" ON UNIT 61 AT TIME STEP 10, STRESS PERIOD 2
 UBDSV3 SAVING " SURFACE LEAKAGE" ON UNIT 61 AT TIME STEP 10, STRESS PERIOD 2
 UBDSV3 SAVING "       HORT+DUNN" ON UNIT 61 AT TIME STEP 10, STRESS PERIOD 2
 UBDSV3 SAVING "  STORAGE CHANGE" ON UNIT 61 AT TIME STEP 10, STRESS PERIOD 2


UNSATURATED ZONE PACKAGE VOLUMETRIC BUDGET FOR  TIME STEP    10 STRESS PERIOD    2
  ------------------------------------------------------------------------------



     CUMULATIVE VOLUMES      L**3       RATES FOR THIS TIME STEP      L**3/T
     ------------------                 ------------------------

           IN:                                      IN:
           ---                                      ---
        INFILTRATION =     1.1164854E+8          INFILTRATION =       67.8000000

          OUT:                                     OUT:
          ----                                     ----
              UZF ET =     1.6409661E+8                UZF ET =        124.41658
        UZF RECHARGE =     3.4395590E+7          UZF RECHARGE =        9.0183332

            IN - OUT =    -8.6843668E+7              IN - OUT =      -65.6349117

          STORAGE:                                 STORAGE:
          --------                                 --------
      STORAGE CHANGE =    -8.6820817E+7        STORAGE CHANGE =      -65.6147639

 PERCENT DISCREPANCY =          -0.00     PERCENT DISCREPANCY =          -0.02




 PERCENT DISCREPANCY IS DIFFERENCE BETWEEN IN-OUT MINUS CHANGE IN STORAGE
 DIVIDED BY THE AVERAGE OF IN AND OUT TIMES 100






  -------------------------------------------------------------------------------------
  VOLUMETRIC BUDGET FOR ENTIRE MODEL AT END OF TIME STEP   10 IN STRESS PERIOD      2
  -------------------------------------------------------------------------------------

     CUMULATIVE VOLUMES      L**3       RATES FOR THIS TIME STEP      L**3/T
     ------------------                 ------------------------

           IN:                                      IN:
           ---                                      ---
             STORAGE =        1608.6014               STORAGE =       6.0148E-03
       CONSTANT HEAD =           0.0000         CONSTANT HEAD =           0.0000
               WELLS =           0.0000                 WELLS =           0.0000
     HEAD DEP BOUNDS =      827350.6815       HEAD DEP BOUNDS =           0.2087
      STREAM LEAKAGE =   173743265.3627        STREAM LEAKAGE =          43.5805
        UZF RECHARGE =    34395590.1020          UZF RECHARGE =           9.0183
               GW ET =           0.0000                 GW ET =           0.0000
     SURFACE LEAKAGE =           0.0000       SURFACE LEAKAGE =           0.0000

            TOTAL IN =   208967814.7475              TOTAL IN =          52.8135

          OUT:                                     OUT:
          ----                                     ----
             STORAGE =     9154666.4915               STORAGE =           6.3428
       CONSTANT HEAD =           0.0000         CONSTANT HEAD =           0.0000
               WELLS =    78924671.3245                 WELLS =          20.0000
     HEAD DEP BOUNDS =     1031477.0924       HEAD DEP BOUNDS =           0.2621
      STREAM LEAKAGE =    48182344.1387        STREAM LEAKAGE =          12.5060
        UZF RECHARGE =           0.0000          UZF RECHARGE =           0.0000
               GW ET =    71660021.7408                 GW ET =          13.6839
     SURFACE LEAKAGE =           0.0000       SURFACE LEAKAGE =           0.0000

           TOTAL OUT =   208953180.7878             TOTAL OUT =          52.7948

            IN - OUT =       14633.9597              IN - OUT =       1.8713E-02

 PERCENT DISCREPANCY =           0.01     PERCENT DISCREPANCY =           0.04


          TIME SUMMARY AT END OF TIME STEP    10 IN STRESS PERIOD      2
                    SECONDS     MINUTES      HOURS       DAYS        YEARS
                    -----------------------------------------------------------
   TIME STEP LENGTH 1.95033E+05  3250.6      54.176      2.2573     6.18023E-03
 STRESS PERIOD TIME 1.31823E+06  21971.      366.18      15.257     4.17723E-02
         TOTAL TIME 3.94623E+06  65771.      1096.2      45.674     0.12505    
 
 
 SOLVING FOR HEAD 
     6 ITERATIONS FOR TIME STEP  11 IN STRESS PERIOD    2

 MAXIMUM HEAD CHANGE FOR EACH ITERATION:

    HEAD CHANGE   HEAD CHANGE   HEAD CHANGE   HEAD CHANGE   HEAD CHANGE
  LAYER,ROW,COL LAYER,ROW,COL LAYER,ROW,COL LAYER,ROW,COL LAYER,ROW,COL
 ----------------------------------------------------------------------
     0.1449E-01    0.3964E-02    0.1381E-02    0.5486E-03    0.2175E-03
  (  1, 12,  8) (  1, 12,  8) (  1, 13,  3) (  1, 13,  3) (  1, 13,  3)
     0.8621E-04
  (  1, 13,  3)


 NO OUTPUT CONTROL FOR STRESS PERIOD      2   TIME STEP    11
 
 SOLVING FOR HEAD 
     6 ITERATIONS FOR TIME STEP  12 IN STRESS PERIOD    2

 MAXIMUM HEAD CHANGE FOR EACH ITERATION:

    HEAD CHANGE   HEAD CHANGE   HEAD CHANGE   HEAD CHANGE   HEAD CHANGE
  LAYER,ROW,COL LAYER,ROW,COL LAYER,ROW,COL LAYER,ROW,COL LAYER,ROW,COL
 ----------------------------------------------------------------------
     0.1514E-01    0.4058E-02    0.1483E-02    0.5767E-03    0.2234E-03
  (  1, 12,  8) (  1, 12,  8) (  1, 13,  5) (  1, 13,  5) (  1, 13,  5)
     0.8676E-04
  (  1, 13,  5)


 NO OUTPUT CONTROL FOR STRESS PERIOD      2   TIME STEP    12
 
 SOLVING FOR HEAD 
     5 ITERATIONS FOR TIME STEP  13 IN STRESS PERIOD    2

 MAXIMUM HEAD CHANGE FOR EACH ITERATION:

    HEAD CHANGE   HEAD CHANGE   HEAD CHANGE   HEAD CHANGE   HEAD CHANGE
  LAYER,ROW,COL LAYER,ROW,COL LAYER,ROW,COL LAYER,ROW,COL LAYER,ROW,COL
 ----------------------------------------------------------------------
     0.1577E-01    0.4129E-02    0.1182E-02    0.4567E-03    0.1756E-03
  (  1, 12,  8) (  1, 12,  8) (  1, 13,  5) (  1, 13,  5) (  1, 13,  5)


 NO OUTPUT CONTROL FOR STRESS PERIOD      2   TIME STEP    13
 
 SOLVING FOR HEAD 
     5 ITERATIONS FOR TIME STEP  14 IN STRESS PERIOD    2

 MAXIMUM HEAD CHANGE FOR EACH ITERATION:

    HEAD CHANGE   HEAD CHANGE   HEAD CHANGE   HEAD CHANGE   HEAD CHANGE
  LAYER,ROW,COL LAYER,ROW,COL LAYER,ROW,COL LAYER,ROW,COL LAYER,ROW,COL
 ----------------------------------------------------------------------
     0.1639E-01    0.4180E-02    0.1070E-02    0.3571E-03    0.1363E-03
  (  1, 12,  8) (  1, 12,  8) (  1, 12,  8) (  1, 13,  5) (  1, 13,  5)


 NO OUTPUT CONTROL FOR STRESS PERIOD      2   TIME STEP    14
 
 SOLVING FOR HEAD 
     5 ITERATIONS FOR TIME STEP  15 IN STRESS PERIOD    2

 MAXIMUM HEAD CHANGE FOR EACH ITERATION:

    HEAD CHANGE   HEAD CHANGE   HEAD CHANGE   HEAD CHANGE   HEAD CHANGE
  LAYER,ROW,COL LAYER,ROW,COL LAYER,ROW,COL LAYER,ROW,COL LAYER,ROW,COL
 ----------------------------------------------------------------------
     0.1698E-01    0.4207E-02    0.1047E-02    0.2788E-03    0.1057E-03
  (  1, 12,  8) (  1, 12,  8) (  1, 12,  8) (  1, 13,  5) (  1, 13,  5)


 OUTPUT CONTROL FOR STRESS PERIOD      2   TIME STEP    15
    PRINT BUDGET
    PRINT HEAD FOR ALL LAYERS
    SAVE HEAD FOR ALL LAYERS
    SAVE BUDGET

           WELLS   PERIOD 2   STEP 15
WELL          1   LAYER          1   ROW          6   COL          4   RATE -2.0
WELL          2   LAYER          1   ROW          6   COL          5   RATE -2.0
WELL          3   LAYER          1   ROW          7   COL          4   RATE -2.0
WELL          4   LAYER          1   ROW          7   COL          5   RATE -2.0
WELL          5   LAYER          1   ROW          8   COL          4   RATE -2.0
WELL          6   LAYER          1   ROW          8   COL          5   RATE -2.0
WELL          7   LAYER          1   ROW          9   COL          4   RATE -2.0
WELL          8   LAYER          1   ROW          9   COL          5   RATE -2.0
WELL          9   LAYER          1   ROW         10   COL          4   RATE -2.0
WELL         10   LAYER          1   ROW         10   COL          5   RATE -2.0

  HEAD DEP BOUNDS   PERIOD    2   STEP  15
 BOUNDARY      1   LAYER   1   ROW    13   COL     1   RATE   -0.262604       COND    0.380000E-01
 BOUNDARY      2   LAYER   1   ROW    14   COL     9   RATE    0.208437       COND    0.380000E-01



 STREAM LISTING     PERIOD      2   STEP       15

 LAYER ROW COL. STREAM  RCH.  FLOW INTO     FLOW TO   FLOW OUT OF   OVRLND.     DIRECT     STREAM       STREAM     STREAM     STREAM   STREAMBED  STREAMBED  STREAMBED
                SEG.NO.  NO.  STRM. RCH.    AQUIFER    STRM. RCH.    RUNOFF     PRECIP       ET          HEAD       DEPTH      WIDTH   CONDCTNC.   GRADIENT  ELEVATION

   1    1    1     1     1    2.5000E+01  1.0296E+00   2.3970E+01  0.000E+00  0.000E+00  0.000E+00  1.09422E+03  1.172E+00  1.296E+01  5.832E-01  5.885E-01  1.093E+03
   1    2    2     1     2    2.3970E+01  3.0629E+00   2.0908E+01  0.000E+00  0.000E+00  0.000E+00  1.08920E+03  1.141E+00  1.254E+01  8.776E-01  1.163E+00  1.088E+03
   1    3    3     1     3    2.0908E+01  2.9055E+00   1.8002E+01  0.000E+00  0.000E+00  0.000E+00  1.08351E+03  1.091E+00  1.184E+01  7.102E-01  1.364E+00  1.082E+03
   1    3    4     1     4    1.8002E+01  2.4680E+00   1.5534E+01  0.000E+00  0.000E+00  0.000E+00  1.07845E+03  1.045E+00  1.099E+01  6.101E-01  1.348E+00  1.077E+03
   1    4    5     2     1    5.5341E+00  2.6631E+00   2.8710E+00  0.000E+00  0.000E+00  0.000E+00  1.07235E+03  4.142E-01  1.200E+01  7.800E-01  1.138E+00  1.072E+03
   1    5    6     2     2    2.8710E+00  1.9541E+00   9.1692E-01  0.000E+00  0.000E+00  0.000E+00  1.06677E+03  2.568E-01  1.200E+01  6.000E-01  1.086E+00  1.067E+03
   1    6    6     2     3    9.1692E-01  9.1692E-01   0.0000E+00  0.000E+00  0.000E+00  0.000E+00  1.06180E+03  9.347E-03  1.200E+01  6.000E-01  1.003E+00  1.062E+03
   1    7    6     2     4    0.0000E+00  0.0000E+00   0.0000E+00  0.000E+00  0.000E+00  0.000E+00  1.05708E+03  0.000E+00  1.200E+01  6.000E-01  1.000E+00  1.057E+03
   1    8    6     2     5    0.0000E+00  0.0000E+00   0.0000E+00  0.000E+00  0.000E+00  0.000E+00  1.05236E+03  0.000E+00  1.200E+01  6.000E-01  1.000E+00  1.052E+03
   1    3    5     3     1    1.0000E+01  2.8252E+00   7.1748E+00  0.000E+00  0.000E+00  0.000E+00  1.07555E+03  1.909E+00  9.636E+00  7.227E-01  1.955E+00  1.074E+03
   1    3    6     3     2    7.1748E+00  2.1844E+00   4.9904E+00  0.000E+00  0.000E+00  0.000E+00  1.07264E+03  1.727E+00  8.909E+00  6.682E-01  1.635E+00  1.071E+03
   1    3    7     3     3    4.9904E+00  1.0811E+00   3.9093E+00  0.000E+00  0.000E+00  0.000E+00  1.06987E+03  1.555E+00  8.218E+00  5.547E-01  9.744E-01  1.068E+03
   1    4    8     3     4    3.9093E+00  1.5695E+00   2.3398E+00  0.000E+00  0.000E+00  0.000E+00  1.06682E+03  1.364E+00  7.455E+00  6.709E-01  1.170E+00  1.065E+03
   1    5    8     3     5    2.3398E+00  1.5789E+00   7.6086E-01  0.000E+00  0.000E+00  0.000E+00  1.06362E+03  1.164E+00  6.655E+00  4.991E-01  1.582E+00  1.062E+03
   1    6    8     3     6    7.6086E-01  5.5980E-01   2.0106E-01  0.000E+00  0.000E+00  0.000E+00  1.06158E+03  1.036E+00  6.145E+00  1.844E-01  1.518E+00  1.061E+03
   1    5   10     4     1    1.0000E+01  9.0525E-01   9.0947E+00  0.000E+00  0.000E+00  0.000E+00  1.07835E+03  6.210E-01  1.000E+01  2.500E-01  1.207E+00  1.078E+03
   1    5    9     4     2    9.0947E+00  1.7835E+00   7.3113E+00  0.000E+00  0.000E+00  0.000E+00  1.07148E+03  5.670E-01  1.000E+01  5.000E-01  1.189E+00  1.071E+03
   1    6    8     4     3    7.3113E+00  1.2257E+00   6.0855E+00  0.000E+00  0.000E+00  0.000E+00  1.06368E+03  5.021E-01  1.000E+01  3.500E-01  1.167E+00  1.063E+03
   1    6    8     5     1    6.2866E+00  9.9852E-01   5.2881E+00  0.000E+00  0.000E+00  0.000E+00  1.05855E+03  5.546E-01  1.090E+01  4.358E-01  7.637E-01  1.058E+03
   1    7    7     5     2    5.2881E+00  1.6362E+00   3.6519E+00  0.000E+00  0.000E+00  0.000E+00  1.05401E+03  5.067E-01  9.332E+00  4.666E-01  1.169E+00  1.054E+03
   1    8    7     5     3    3.6519E+00  9.2068E-01   2.7312E+00  0.000E+00  0.000E+00  0.000E+00  1.04970E+03  4.503E-01  7.624E+00  2.668E-01  1.150E+00  1.049E+03
   1    8    6     5     4    2.7312E+00  5.5520E-01   2.1760E+00  0.000E+00  0.000E+00  0.000E+00  1.04666E+03  4.107E-01  6.511E+00  1.628E-01  1.137E+00  1.046E+03
   1    9    6     6     1    2.1760E+00  1.9194E+00   2.5660E-01  0.000E+00  0.000E+00  0.000E+00  1.04293E+03  1.991E-01  1.200E+01  6.000E-01  1.066E+00  1.043E+03
   1   10    7     6     2    2.5660E-01  2.5660E-01   0.0000E+00  0.000E+00  0.000E+00  0.000E+00  1.03820E+03  1.760E-02  1.200E+01  6.000E-01  1.006E+00  1.038E+03
   1   11    7     6     3    0.0000E+00  0.0000E+00   0.0000E+00  0.000E+00  0.000E+00  0.000E+00  1.03364E+03  0.000E+00  1.200E+01  6.000E-01  1.000E+00  1.034E+03
   1   12    7     6     4    0.0000E+00  0.0000E+00   0.0000E+00  0.000E+00  0.000E+00  0.000E+00  1.02909E+03  0.000E+00  1.200E+01  6.000E-01  3.740E-01  1.029E+03
   1   13    7     6     5    0.0000E+00 -7.7036E-01   7.7036E-01  0.000E+00  0.000E+00  0.000E+00  1.02601E+03  9.985E-02  1.200E+01  2.400E-01 -1.070E+00  1.026E+03
   1   14    9     7     1    1.5000E+02  1.9676E+00   1.4803E+02  0.000E+00  0.000E+00  0.000E+00  1.03987E+03  2.286E+00  5.529E+01  5.592E+00  1.173E-01  1.038E+03
   1   13    8     7     2    1.4803E+02  2.9922E+00   1.4504E+02  0.000E+00  0.000E+00  0.000E+00  1.03477E+03  2.273E+00  5.523E+01  6.144E+00  1.623E-01  1.032E+03
   1   13    7     7     3    1.4504E+02  2.5578E+00   1.4248E+02  0.000E+00  0.000E+00  0.000E+00  1.02968E+03  2.258E+00  5.516E+01  5.578E+00  1.528E-01  1.027E+03
   1   13    6     8     1    1.4325E+02  8.9404E-01   1.4236E+02  0.000E+00  0.000E+00  0.000E+00  1.02464E+03  2.765E+00  4.010E+01  4.086E+00  7.293E-02  1.022E+03
   1   13    5     8     2    1.4236E+02 -1.9857E+00   1.4434E+02  0.000E+00  0.000E+00  0.000E+00  1.01839E+03  2.769E+00  4.016E+01  4.092E+00 -1.618E-01  1.016E+03
   1   13    4     8     3    1.4434E+02 -3.7635E+00   1.4811E+02  0.000E+00  0.000E+00  0.000E+00  1.01217E+03  2.790E+00  4.046E+01  4.123E+00 -3.043E-01  1.009E+03
   1   13    3     8     4    1.4811E+02 -4.0849E+00   1.5219E+02  0.000E+00  0.000E+00  0.000E+00  1.00594E+03  2.818E+00  4.086E+01  4.164E+00 -3.270E-01  1.003E+03
   1   13    2     8     5    1.5219E+02 -2.0753E+00   1.5427E+02  0.000E+00  0.000E+00  0.000E+00  9.99714E+02  2.839E+00  4.117E+01  4.196E+00 -1.649E-01  9.969E+02
   1   13    1     8     6    1.5427E+02 -4.7317E-01   1.5474E+02  0.000E+00  0.000E+00  0.000E+00  9.94723E+02  2.848E+00  4.130E+01  2.525E+00 -6.246E-02  9.919E+02



 UBDSV3 SAVING "           GW ET" ON UNIT 61 AT TIME STEP 15, STRESS PERIOD 2
 UBDSV3 SAVING "    UZF RECHARGE" ON UNIT 61 AT TIME STEP 15, STRESS PERIOD 2
 UBDSV3 SAVING " SURFACE LEAKAGE" ON UNIT 61 AT TIME STEP 15, STRESS PERIOD 2
 UBDSV3 SAVING "       HORT+DUNN" ON UNIT 61 AT TIME STEP 15, STRESS PERIOD 2
 UBDSV3 SAVING "  STORAGE CHANGE" ON UNIT 61 AT TIME STEP 15, STRESS PERIOD 2


UNSATURATED ZONE PACKAGE VOLUMETRIC BUDGET FOR  TIME STEP    15 STRESS PERIOD    2
  ------------------------------------------------------------------------------



     CUMULATIVE VOLUMES      L**3       RATES FOR THIS TIME STEP      L**3/T
     ------------------                 ------------------------

           IN:                                      IN:
           ---                                      ---
        INFILTRATION =     2.0045070E+8          INFILTRATION =       67.8000000

          OUT:                                     OUT:
          ----                                     ----
              UZF ET =     3.2696034E+8                UZF ET =        124.30343
        UZF RECHARGE =     4.6564244E+7          UZF RECHARGE =        9.0520613

            IN - OUT =    -1.7307388E+8              IN - OUT =      -65.5554946

          STORAGE:                                 STORAGE:
          --------                                 --------
      STORAGE CHANGE =    -1.7302809E+8        STORAGE CHANGE =      -65.5335967

 PERCENT DISCREPANCY =          -0.00     PERCENT DISCREPANCY =          -0.02




 PERCENT DISCREPANCY IS DIFFERENCE BETWEEN IN-OUT MINUS CHANGE IN STORAGE
 DIVIDED BY THE AVERAGE OF IN AND OUT TIMES 100



1
              HEAD IN LAYER   1 AT END OF TIME STEP  15 IN STRESS PERIOD    2
  ---------------------------------------------------------------------------

           1       2       3       4       5       6       7       8       9      10
 ...................................................................................
   1  1092.45 1088.64 6999.00 6999.00 6999.00 6999.00 6999.00 6999.00 6999.00 6999.00
   2  1089.23 1085.71 1078.99 6999.00 6999.00 1071.61 1070.87 1070.38 6999.00 6999.00
   3  6999.00 1077.31 1074.11 1069.77 1070.17 1069.37 1067.92 1067.82 6999.00 6999.00
   4  1067.82 1068.30 1066.40 1062.69 1061.52 1060.31 1061.18 1064.48 1063.72 6999.00
   5  1063.68 1061.22 1058.40 1056.12 1055.89 1056.68 1056.77 1059.14 1062.77 1065.26
   6  1058.99 1055.26 1051.82 1049.36 1049.79 1051.92 1053.57 1056.26 1059.20 1063.61
   7  1055.33 1049.58 1045.87 1043.50 1044.29 1046.83 1049.66 1052.36 1054.05 6999.00
   8  6999.00 1042.24 1039.80 1037.86 1038.93 1041.67 1043.85 1046.90 1049.11 6999.00
   9  6999.00 1035.30 1033.84 1032.56 1033.96 1036.86 1038.06 1040.43 1043.70 6999.00
  10  6999.00 1028.29 1027.98 1027.92 1029.57 1032.03 1033.46 1035.84 1039.94 1044.37
  11  6999.00 1019.58 1020.95 1024.02 1026.12 1028.39 1030.00 1032.60 1036.22 6999.00
  12  1001.16 1008.78 1013.94 1018.64 1022.29 1025.56 1027.97 1031.04 1034.78 6999.00
  13   994.91 1000.21 1006.92 1013.08 1018.88 1024.42 1029.22 1034.29 1036.41 6999.00
  14  6999.00 1005.81 1011.48 1016.19 1021.23 1026.06 1030.48 1035.38 1039.51 6999.00
  15  6999.00 6999.00 1018.83 1021.82 1025.56 1028.54 6999.00 6999.00 6999.00 6999.00

 HEAD WILL BE SAVED ON UNIT   58 AT END OF TIME STEP    15 IN STRESS PERIOD      2



  -------------------------------------------------------------------------------------
  VOLUMETRIC BUDGET FOR ENTIRE MODEL AT END OF TIME STEP   15 IN STRESS PERIOD      2
  -------------------------------------------------------------------------------------

     CUMULATIVE VOLUMES      L**3       RATES FOR THIS TIME STEP      L**3/T
     ------------------                 ------------------------

           IN:                                      IN:
           ---                                      ---
             STORAGE =       21293.1027               STORAGE =       1.9465E-02
       CONSTANT HEAD =           0.0000         CONSTANT HEAD =           0.0000
               WELLS =           0.0000                 WELLS =           0.0000
     HEAD DEP BOUNDS =     1100446.3960       HEAD DEP BOUNDS =           0.2084
      STREAM LEAKAGE =   230676528.9653        STREAM LEAKAGE =          43.4116
        UZF RECHARGE =    46564243.6022          UZF RECHARGE =           9.0521
               GW ET =           0.0000                 GW ET =           0.0000
     SURFACE LEAKAGE =           0.0000       SURFACE LEAKAGE =           0.0000

            TOTAL IN =   278362512.0662              TOTAL IN =          52.6916

          OUT:                                     OUT:
          ----                                     ----
             STORAGE =    17022733.7240               STORAGE =           5.4706
       CONSTANT HEAD =           0.0000         CONSTANT HEAD =           0.0000
               WELLS =   105120000.0000                 WELLS =          20.0000
     HEAD DEP BOUNDS =     1375219.3895       HEAD DEP BOUNDS =           0.2626
      STREAM LEAKAGE =    65140251.5557        STREAM LEAKAGE =          13.1530
        UZF RECHARGE =           0.0000          UZF RECHARGE =           0.0000
               GW ET =    89672523.0479                 GW ET =          13.7910
     SURFACE LEAKAGE =           0.0000       SURFACE LEAKAGE =           0.0000

           TOTAL OUT =   278330727.7172             TOTAL OUT =          52.6772

            IN - OUT =       31784.3491              IN - OUT =       1.4344E-02

 PERCENT DISCREPANCY =           0.01     PERCENT DISCREPANCY =           0.03


          TIME SUMMARY AT END OF TIME STEP    15 IN STRESS PERIOD      2
                    SECONDS     MINUTES      HOURS       DAYS        YEARS
                    -----------------------------------------------------------
   TIME STEP LENGTH 3.14103E+05  5235.0      87.251      3.6354     9.95332E-03
 STRESS PERIOD TIME 2.62800E+06  43800.      730.00      30.417     8.32763E-02
         TOTAL TIME 5.25600E+06  87600.      1460.0      60.833     0.16655    
 
1
                            STRESS PERIOD NO.      3, LENGTH =   2628000.    
                            -----------------------------------------------

                              NUMBER OF TIME STEPS =    15

                               MULTIPLIER FOR DELT =     1.100

                            INITIAL TIME STEP SIZE =   82713.09    

 WEL PACKAGE STRESS PERIOD INFORMATION [BEFORE APPLICATION OF TABFILES]

 WELL NO.  LAYER   ROW   COL   STRESS RATE         
 --------------------------------------------------
      1      1      6      4  -1.0000000    
      2      1      6      5  -1.0000000    
      3      1      7      4  -1.0000000    
      4      1      7      5  -1.0000000    
      5      1      8      4  -1.0000000    
      6      1      8      5  -1.0000000    
      7      1      9      4  -1.0000000    
      8      1      9      5  -1.0000000    
      9      1     10      4  -1.0000000    
     10      1     10      5  -1.0000000    

10 WELLS

 REUSING NON-PARAMETER GHB CELLS FROM LAST STRESS PERIOD

      2 GHB CELLS

 REUSING STREAM SEGMENT DATA FROM LAST STRESS PERIOD



            AREAL INFILTRATION RATE
 READING ON UNIT   19 WITH FORMAT: (10F4.0)            

            1           2           3           4           5           6           7           8           9          10
 ........................................................................................................................
   1   0.1000E-07  0.2000E-07   0.000       0.000       0.000       0.000       0.000       0.000       0.000       0.000    
   2   0.2000E-07  0.1000E-07  0.2000E-07   0.000       0.000      0.8000E-07  0.8000E-07  0.5000E-07   0.000       0.000    
   3    0.000      0.5000E-07  0.1000E-07  0.1000E-07  0.8000E-07  0.8000E-07  0.5000E-07  0.5000E-07   0.000       0.000    
   4   0.8000E-07  0.5000E-07  0.1000E-07  0.1000E-07  0.1000E-07  0.1000E-07  0.1000E-07  0.1000E-07  0.2000E-07   0.000    
   5   0.8000E-07  0.5000E-07  0.1000E-07  0.1000E-07  0.1000E-07  0.1000E-07  0.1000E-07  0.1000E-07  0.1000E-07  0.1000E-07
   6   0.8000E-07  0.5000E-07  0.5000E-07  0.2000E-07  0.2000E-07  0.1000E-07  0.1000E-07  0.1000E-07  0.1000E-07  0.5000E-07
   7   0.8000E-07  0.5000E-07  0.5000E-07  0.2000E-07  0.2000E-07  0.1000E-07  0.1000E-07  0.2000E-07  0.2000E-07   0.000    
   8    0.000      0.5000E-07  0.5000E-07  0.2000E-07  0.2000E-07  0.1000E-07  0.1000E-07  0.2000E-07  0.5000E-07   0.000    
   9    0.000      0.5000E-07  0.5000E-07  0.2000E-07  0.2000E-07  0.1000E-07  0.1000E-07  0.2000E-07  0.5000E-07   0.000    
  10    0.000      0.5000E-07  0.5000E-07  0.2000E-07  0.2000E-07  0.1000E-07  0.1000E-07  0.2000E-07  0.5000E-07  0.8000E-07
  11    0.000      0.1000E-07  0.1000E-07  0.1000E-07  0.1000E-07  0.1000E-07  0.1000E-07  0.2000E-07  0.5000E-07   0.000    
  12   0.1000E-07  0.1000E-07  0.1000E-07  0.1000E-07  0.1000E-07  0.1000E-07  0.1000E-07  0.1000E-07  0.2000E-07   0.000    
  13   0.1000E-07  0.1000E-07  0.2000E-07  0.2000E-07  0.2000E-07  0.2000E-07  0.2000E-07  0.1000E-07  0.1000E-07   0.000    
  14    0.000      0.2000E-07  0.5000E-07  0.5000E-07  0.5000E-07  0.5000E-07  0.5000E-07  0.2000E-07  0.1000E-07   0.000    
  15    0.000       0.000      0.8000E-07  0.8000E-07  0.8000E-07  0.8000E-07   0.000       0.000       0.000       0.000    

USING ET RATE FROM PREVIOUS STRESS PERIOD. CURRENT PERIOD IS:       3

 USING ET EXTINCTION DEPTH FROM PREVIOUS STRESS PERIOD. CURRENT PERIOD IS:       3

 USING EXTINCTION WATER CONTENT FROM PREVIOUS STRESS PERIOD. CURRENT PERIOD IS:       3
 
 SOLVING FOR HEAD 

     5 ITERATIONS FOR TIME STEP   1 IN STRESS PERIOD    3

 MAXIMUM HEAD CHANGE FOR EACH ITERATION:

    HEAD CHANGE   HEAD CHANGE   HEAD CHANGE   HEAD CHANGE   HEAD CHANGE
  LAYER,ROW,COL LAYER,ROW,COL LAYER,ROW,COL LAYER,ROW,COL LAYER,ROW,COL
 ----------------------------------------------------------------------
     0.1341E-01    0.4449E-02    0.1489E-02    0.4988E-03    0.1671E-03
  (  1, 10,  5) (  1, 10,  5) (  1,  9,  4) (  1,  9,  4) (  1,  9,  4)


 OUTPUT CONTROL FOR STRESS PERIOD      3   TIME STEP     1
    PRINT BUDGET
    SAVE BUDGET

           WELLS   PERIOD 3   STEP 1
WELL          1   LAYER          1   ROW          6   COL          4   RATE -1.0
WELL          2   LAYER          1   ROW          6   COL          5   RATE -1.0
WELL          3   LAYER          1   ROW          7   COL          4   RATE -1.0
WELL          4   LAYER          1   ROW          7   COL          5   RATE -1.0
WELL          5   LAYER          1   ROW          8   COL          4   RATE -1.0
WELL          6   LAYER          1   ROW          8   COL          5   RATE -1.0
WELL          7   LAYER          1   ROW          9   COL          4   RATE -1.0
WELL          8   LAYER          1   ROW          9   COL          5   RATE -1.0
WELL          9   LAYER          1   ROW         10   COL          4   RATE -1.0
WELL         10   LAYER          1   ROW         10   COL          5   RATE -1.0

  HEAD DEP BOUNDS   PERIOD    3   STEP   1
 BOUNDARY      1   LAYER   1   ROW    13   COL     1   RATE   -0.262625       COND    0.380000E-01
 BOUNDARY      2   LAYER   1   ROW    14   COL     9   RATE    0.208429       COND    0.380000E-01



 STREAM LISTING     PERIOD      3   STEP        1

 LAYER ROW COL. STREAM  RCH.  FLOW INTO     FLOW TO   FLOW OUT OF   OVRLND.     DIRECT     STREAM       STREAM     STREAM     STREAM   STREAMBED  STREAMBED  STREAMBED
                SEG.NO.  NO.  STRM. RCH.    AQUIFER    STRM. RCH.    RUNOFF     PRECIP       ET          HEAD       DEPTH      WIDTH   CONDCTNC.   GRADIENT  ELEVATION

   1    1    1     1     1    2.5000E+01  1.0285E+00   2.3972E+01  0.000E+00  0.000E+00  0.000E+00  1.09422E+03  1.172E+00  1.296E+01  5.832E-01  5.878E-01  1.093E+03
   1    2    2     1     2    2.3972E+01  3.0613E+00   2.0910E+01  0.000E+00  0.000E+00  0.000E+00  1.08920E+03  1.141E+00  1.254E+01  8.776E-01  1.163E+00  1.088E+03
   1    3    3     1     3    2.0910E+01  2.9057E+00   1.8005E+01  0.000E+00  0.000E+00  0.000E+00  1.08351E+03  1.091E+00  1.184E+01  7.102E-01  1.364E+00  1.082E+03
   1    3    4     1     4    1.8005E+01  2.4682E+00   1.5536E+01  0.000E+00  0.000E+00  0.000E+00  1.07845E+03  1.045E+00  1.099E+01  6.101E-01  1.348E+00  1.077E+03
   1    4    5     2     1    5.5364E+00  2.6632E+00   2.8732E+00  0.000E+00  0.000E+00  0.000E+00  1.07235E+03  4.144E-01  1.200E+01  7.800E-01  1.138E+00  1.072E+03
   1    5    6     2     2    2.8732E+00  1.9542E+00   9.1901E-01  0.000E+00  0.000E+00  0.000E+00  1.06677E+03  2.570E-01  1.200E+01  6.000E-01  1.086E+00  1.067E+03
   1    6    6     2     3    9.1901E-01  9.1901E-01   0.0000E+00  0.000E+00  0.000E+00  0.000E+00  1.06180E+03  9.360E-03  1.200E+01  6.000E-01  1.003E+00  1.062E+03
   1    7    6     2     4    0.0000E+00  0.0000E+00   0.0000E+00  0.000E+00  0.000E+00  0.000E+00  1.05708E+03  0.000E+00  1.200E+01  6.000E-01  1.000E+00  1.057E+03
   1    8    6     2     5    0.0000E+00  0.0000E+00   0.0000E+00  0.000E+00  0.000E+00  0.000E+00  1.05236E+03  0.000E+00  1.200E+01  6.000E-01  1.000E+00  1.052E+03
   1    3    5     3     1    1.0000E+01  2.8252E+00   7.1748E+00  0.000E+00  0.000E+00  0.000E+00  1.07555E+03  1.909E+00  9.636E+00  7.227E-01  1.955E+00  1.074E+03
   1    3    6     3     2    7.1748E+00  2.1842E+00   4.9906E+00  0.000E+00  0.000E+00  0.000E+00  1.07264E+03  1.727E+00  8.909E+00  6.682E-01  1.634E+00  1.071E+03
   1    3    7     3     3    4.9906E+00  1.0805E+00   3.9101E+00  0.000E+00  0.000E+00  0.000E+00  1.06987E+03  1.555E+00  8.218E+00  5.547E-01  9.739E-01  1.068E+03
   1    4    8     3     4    3.9101E+00  1.5677E+00   2.3425E+00  0.000E+00  0.000E+00  0.000E+00  1.06682E+03  1.364E+00  7.455E+00  6.709E-01  1.168E+00  1.065E+03
   1    5    8     3     5    2.3425E+00  1.5789E+00   7.6351E-01  0.000E+00  0.000E+00  0.000E+00  1.06362E+03  1.164E+00  6.655E+00  4.991E-01  1.582E+00  1.062E+03
   1    6    8     3     6    7.6351E-01  5.5980E-01   2.0371E-01  0.000E+00  0.000E+00  0.000E+00  1.06158E+03  1.036E+00  6.145E+00  1.844E-01  1.518E+00  1.061E+03
   1    5   10     4     1    1.0000E+01  9.0525E-01   9.0947E+00  0.000E+00  0.000E+00  0.000E+00  1.07835E+03  6.210E-01  1.000E+01  2.500E-01  1.207E+00  1.078E+03
   1    5    9     4     2    9.0947E+00  1.7835E+00   7.3113E+00  0.000E+00  0.000E+00  0.000E+00  1.07148E+03  5.670E-01  1.000E+01  5.000E-01  1.189E+00  1.071E+03
   1    6    8     4     3    7.3113E+00  1.2257E+00   6.0855E+00  0.000E+00  0.000E+00  0.000E+00  1.06368E+03  5.021E-01  1.000E+01  3.500E-01  1.167E+00  1.063E+03
   1    6    8     5     1    6.2893E+00  9.9766E-01   5.2916E+00  0.000E+00  0.000E+00  0.000E+00  1.05855E+03  5.547E-01  1.090E+01  4.360E-01  7.628E-01  1.058E+03
   1    7    7     5     2    5.2916E+00  1.6369E+00   3.6547E+00  0.000E+00  0.000E+00  0.000E+00  1.05401E+03  5.068E-01  9.336E+00  4.668E-01  1.169E+00  1.054E+03
   1    8    7     5     3    3.6547E+00  9.2116E-01   2.7335E+00  0.000E+00  0.000E+00  0.000E+00  1.04970E+03  4.504E-01  7.628E+00  2.670E-01  1.150E+00  1.049E+03
   1    8    6     5     4    2.7335E+00  5.5551E-01   2.1780E+00  0.000E+00  0.000E+00  0.000E+00  1.04666E+03  4.109E-01  6.515E+00  1.629E-01  1.137E+00  1.046E+03
   1    9    6     6     1    2.1780E+00  1.9196E+00   2.5844E-01  0.000E+00  0.000E+00  0.000E+00  1.04293E+03  1.993E-01  1.200E+01  6.000E-01  1.066E+00  1.043E+03
   1   10    7     6     2    2.5844E-01  2.5844E-01   0.0000E+00  0.000E+00  0.000E+00  0.000E+00  1.03820E+03  1.768E-02  1.200E+01  6.000E-01  1.006E+00  1.038E+03
   1   11    7     6     3    0.0000E+00  0.0000E+00   0.0000E+00  0.000E+00  0.000E+00  0.000E+00  1.03364E+03  0.000E+00  1.200E+01  6.000E-01  1.000E+00  1.034E+03
   1   12    7     6     4    0.0000E+00  0.0000E+00   0.0000E+00  0.000E+00  0.000E+00  0.000E+00  1.02909E+03  0.000E+00  1.200E+01  6.000E-01  3.729E-01  1.029E+03
   1   13    7     6     5    0.0000E+00 -7.7044E-01   7.7044E-01  0.000E+00  0.000E+00  0.000E+00  1.02601E+03  9.986E-02  1.200E+01  2.400E-01 -1.070E+00  1.026E+03
   1   14    9     7     1    1.5000E+02  1.9666E+00   1.4803E+02  0.000E+00  0.000E+00  0.000E+00  1.03987E+03  2.286E+00  5.529E+01  5.592E+00  1.172E-01  1.038E+03
   1   13    8     7     2    1.4803E+02  2.9905E+00   1.4504E+02  0.000E+00  0.000E+00  0.000E+00  1.03477E+03  2.273E+00  5.523E+01  6.144E+00  1.622E-01  1.032E+03
   1   13    7     7     3    1.4504E+02  2.5561E+00   1.4249E+02  0.000E+00  0.000E+00  0.000E+00  1.02968E+03  2.258E+00  5.516E+01  5.578E+00  1.527E-01  1.027E+03
   1   13    6     8     1    1.4326E+02  8.9147E-01   1.4237E+02  0.000E+00  0.000E+00  0.000E+00  1.02464E+03  2.765E+00  4.010E+01  4.086E+00  7.272E-02  1.022E+03
   1   13    5     8     2    1.4237E+02 -1.9932E+00   1.4436E+02  0.000E+00  0.000E+00  0.000E+00  1.01839E+03  2.769E+00  4.016E+01  4.092E+00 -1.624E-01  1.016E+03
   1   13    4     8     3    1.4436E+02 -3.7691E+00   1.4813E+02  0.000E+00  0.000E+00  0.000E+00  1.01217E+03  2.790E+00  4.046E+01  4.123E+00 -3.047E-01  1.009E+03
   1   13    3     8     4    1.4813E+02 -4.0914E+00   1.5222E+02  0.000E+00  0.000E+00  0.000E+00  1.00594E+03  2.818E+00  4.086E+01  4.164E+00 -3.275E-01  1.003E+03
   1   13    2     8     5    1.5222E+02 -2.0769E+00   1.5430E+02  0.000E+00  0.000E+00  0.000E+00  9.99715E+02  2.840E+00  4.117E+01  4.196E+00 -1.650E-01  9.969E+02
   1   13    1     8     6    1.5430E+02 -4.7403E-01   1.5477E+02  0.000E+00  0.000E+00  0.000E+00  9.94723E+02  2.848E+00  4.130E+01  2.525E+00 -6.257E-02  9.919E+02



 UBDSV3 SAVING "           GW ET" ON UNIT 61 AT TIME STEP 1, STRESS PERIOD 3
 UBDSV3 SAVING "    UZF RECHARGE" ON UNIT 61 AT TIME STEP 1, STRESS PERIOD 3
 UBDSV3 SAVING " SURFACE LEAKAGE" ON UNIT 61 AT TIME STEP 1, STRESS PERIOD 3
 UBDSV3 SAVING "       HORT+DUNN" ON UNIT 61 AT TIME STEP 1, STRESS PERIOD 3
 UBDSV3 SAVING "  STORAGE CHANGE" ON UNIT 61 AT TIME STEP 1, STRESS PERIOD 3


UNSATURATED ZONE PACKAGE VOLUMETRIC BUDGET FOR  TIME STEP     1 STRESS PERIOD    3
  ------------------------------------------------------------------------------



     CUMULATIVE VOLUMES      L**3       RATES FOR THIS TIME STEP      L**3/T
     ------------------                 ------------------------

           IN:                                      IN:
           ---                                      ---
        INFILTRATION =     2.0746063E+8          INFILTRATION =            84.75

          OUT:                                     OUT:
          ----                                     ----
              UZF ET =     3.3723993E+8                UZF ET =        124.28014
        UZF RECHARGE =     4.7472885E+7          UZF RECHARGE =       10.9854564

            IN - OUT =    -1.7725219E+8              IN - OUT =      -50.5155948

          STORAGE:                                 STORAGE:
          --------                                 --------
      STORAGE CHANGE =    -1.7720590E+8        STORAGE CHANGE =      -50.5096385

 PERCENT DISCREPANCY =          -0.00     PERCENT DISCREPANCY =          -0.00




 PERCENT DISCREPANCY IS DIFFERENCE BETWEEN IN-OUT MINUS CHANGE IN STORAGE
 DIVIDED BY THE AVERAGE OF IN AND OUT TIMES 100






  -------------------------------------------------------------------------------------
  VOLUMETRIC BUDGET FOR ENTIRE MODEL AT END OF TIME STEP    1 IN STRESS PERIOD      3
  -------------------------------------------------------------------------------------

     CUMULATIVE VOLUMES      L**3       RATES FOR THIS TIME STEP      L**3/T
     ------------------                 ------------------------

           IN:                                      IN:
           ---                                      ---
             STORAGE =       23071.1145               STORAGE =       2.1496E-02
       CONSTANT HEAD =           0.0000         CONSTANT HEAD =           0.0000
               WELLS =           0.0000                 WELLS =           0.0000
     HEAD DEP BOUNDS =     1117686.2303       HEAD DEP BOUNDS =           0.2084
      STREAM LEAKAGE =   234266660.6174        STREAM LEAKAGE =          43.4046
        UZF RECHARGE =    47472884.5945          UZF RECHARGE =          10.9855
               GW ET =           0.0000                 GW ET =           0.0000
     SURFACE LEAKAGE =           0.0000       SURFACE LEAKAGE =           0.0000

            TOTAL IN =   282880302.5566              TOTAL IN =          54.6200

          OUT:                                     OUT:
          ----                                     ----
             STORAGE =    18455588.3551               STORAGE =          17.3232
       CONSTANT HEAD =           0.0000         CONSTANT HEAD =           0.0000
               WELLS =   105947130.8566                 WELLS =          10.0000
     HEAD DEP BOUNDS =     1396941.8867       HEAD DEP BOUNDS =           0.2626
      STREAM LEAKAGE =    66230001.6720        STREAM LEAKAGE =          13.1751
        UZF RECHARGE =           0.0000          UZF RECHARGE =           0.0000
               GW ET =    90814259.5448                 GW ET =          13.8036
     SURFACE LEAKAGE =           0.0000       SURFACE LEAKAGE =           0.0000

           TOTAL OUT =   282843922.3152             TOTAL OUT =          54.5645

            IN - OUT =       36380.2414              IN - OUT =       5.5564E-02

 PERCENT DISCREPANCY =           0.01     PERCENT DISCREPANCY =           0.10


          TIME SUMMARY AT END OF TIME STEP     1 IN STRESS PERIOD      3
                    SECONDS     MINUTES      HOURS       DAYS        YEARS
                    -----------------------------------------------------------
   TIME STEP LENGTH  82713.      1378.6      22.976     0.95733     2.62102E-03
 STRESS PERIOD TIME  82713.      1378.6      22.976     0.95733     2.62102E-03
         TOTAL TIME 5.33871E+06  88979.      1483.0      61.791     0.16917    
 
 
 SOLVING FOR HEAD 
     5 ITERATIONS FOR TIME STEP   2 IN STRESS PERIOD    3

 MAXIMUM HEAD CHANGE FOR EACH ITERATION:

    HEAD CHANGE   HEAD CHANGE   HEAD CHANGE   HEAD CHANGE   HEAD CHANGE
  LAYER,ROW,COL LAYER,ROW,COL LAYER,ROW,COL LAYER,ROW,COL LAYER,ROW,COL
 ----------------------------------------------------------------------
     0.1451E-01    0.4861E-02    0.1628E-02    0.5453E-03    0.1826E-03
  (  1,  9,  4) (  1,  9,  4) (  1,  9,  4) (  1,  9,  4) (  1,  9,  4)


 NO OUTPUT CONTROL FOR STRESS PERIOD      3   TIME STEP     2
 
 SOLVING FOR HEAD 
     9 ITERATIONS FOR TIME STEP   3 IN STRESS PERIOD    3

 MAXIMUM HEAD CHANGE FOR EACH ITERATION:

    HEAD CHANGE   HEAD CHANGE   HEAD CHANGE   HEAD CHANGE   HEAD CHANGE
  LAYER,ROW,COL LAYER,ROW,COL LAYER,ROW,COL LAYER,ROW,COL LAYER,ROW,COL
 ----------------------------------------------------------------------
     0.2920E-01    0.1496E-01    0.7667E-02    0.3928E-02    0.2013E-02
  (  1,  3,  6) (  1,  3,  6) (  1,  3,  6) (  1,  3,  6) (  1,  3,  6)
     0.1031E-02    0.5283E-03    0.2707E-03    0.1387E-03
  (  1,  3,  6) (  1,  3,  6) (  1,  3,  6) (  1,  3,  6)


 NO OUTPUT CONTROL FOR STRESS PERIOD      3   TIME STEP     3
 
 SOLVING FOR HEAD 
     9 ITERATIONS FOR TIME STEP   4 IN STRESS PERIOD    3

 MAXIMUM HEAD CHANGE FOR EACH ITERATION:

    HEAD CHANGE   HEAD CHANGE   HEAD CHANGE   HEAD CHANGE   HEAD CHANGE
  LAYER,ROW,COL LAYER,ROW,COL LAYER,ROW,COL LAYER,ROW,COL LAYER,ROW,COL
 ----------------------------------------------------------------------
     0.3280E-01    0.1676E-01    0.8567E-02    0.4379E-02    0.2238E-02
  (  1,  3,  6) (  1,  3,  6) (  1,  3,  6) (  1,  3,  6) (  1,  3,  6)
     0.1144E-02    0.5844E-03    0.2986E-03    0.1526E-03
  (  1,  3,  6) (  1,  3,  6) (  1,  3,  6) (  1,  3,  6)


 NO OUTPUT CONTROL FOR STRESS PERIOD      3   TIME STEP     4
 
 SOLVING FOR HEAD 
     9 ITERATIONS FOR TIME STEP   5 IN STRESS PERIOD    3

 MAXIMUM HEAD CHANGE FOR EACH ITERATION:

    HEAD CHANGE   HEAD CHANGE   HEAD CHANGE   HEAD CHANGE   HEAD CHANGE
  LAYER,ROW,COL LAYER,ROW,COL LAYER,ROW,COL LAYER,ROW,COL LAYER,ROW,COL
 ----------------------------------------------------------------------
     0.3296E-01    0.1681E-01    0.8569E-02    0.4369E-02    0.2227E-02
  (  1,  3,  6) (  1,  3,  6) (  1,  3,  6) (  1,  3,  6) (  1,  3,  6)
     0.1136E-02    0.5789E-03    0.2951E-03    0.1504E-03
  (  1,  3,  6) (  1,  3,  6) (  1,  3,  6) (  1,  3,  6)


 OUTPUT CONTROL FOR STRESS PERIOD      3   TIME STEP     5
    PRINT BUDGET
    SAVE BUDGET

           WELLS   PERIOD 3   STEP 5
WELL          1   LAYER          1   ROW          6   COL          4   RATE -1.0
WELL          2   LAYER          1   ROW          6   COL          5   RATE -1.0
WELL          3   LAYER          1   ROW          7   COL          4   RATE -1.0
WELL          4   LAYER          1   ROW          7   COL          5   RATE -1.0
WELL          5   LAYER          1   ROW          8   COL          4   RATE -1.0
WELL          6   LAYER          1   ROW          8   COL          5   RATE -1.0
WELL          7   LAYER          1   ROW          9   COL          4   RATE -1.0
WELL          8   LAYER          1   ROW          9   COL          5   RATE -1.0
WELL          9   LAYER          1   ROW         10   COL          4   RATE -1.0
WELL         10   LAYER          1   ROW         10   COL          5   RATE -1.0

  HEAD DEP BOUNDS   PERIOD    3   STEP   5
 BOUNDARY      1   LAYER   1   ROW    13   COL     1   RATE   -0.262715       COND    0.380000E-01
 BOUNDARY      2   LAYER   1   ROW    14   COL     9   RATE    0.208401       COND    0.380000E-01



 STREAM LISTING     PERIOD      3   STEP        5

 LAYER ROW COL. STREAM  RCH.  FLOW INTO     FLOW TO   FLOW OUT OF   OVRLND.     DIRECT     STREAM       STREAM     STREAM     STREAM   STREAMBED  STREAMBED  STREAMBED
                SEG.NO.  NO.  STRM. RCH.    AQUIFER    STRM. RCH.    RUNOFF     PRECIP       ET          HEAD       DEPTH      WIDTH   CONDCTNC.   GRADIENT  ELEVATION

   1    1    1     1     1    2.5000E+01  1.0232E+00   2.3977E+01  0.000E+00  0.000E+00  0.000E+00  1.09422E+03  1.173E+00  1.296E+01  5.832E-01  5.848E-01  1.093E+03
   1    2    2     1     2    2.3977E+01  3.0535E+00   2.0923E+01  0.000E+00  0.000E+00  0.000E+00  1.08920E+03  1.141E+00  1.254E+01  8.777E-01  1.160E+00  1.088E+03
   1    3    3     1     3    2.0923E+01  2.9068E+00   1.8017E+01  0.000E+00  0.000E+00  0.000E+00  1.08351E+03  1.091E+00  1.184E+01  7.104E-01  1.364E+00  1.082E+03
   1    3    4     1     4    1.8017E+01  2.4691E+00   1.5547E+01  0.000E+00  0.000E+00  0.000E+00  1.07845E+03  1.046E+00  1.100E+01  6.103E-01  1.349E+00  1.077E+03
   1    4    5     2     1    5.5474E+00  2.6637E+00   2.8837E+00  0.000E+00  0.000E+00  0.000E+00  1.07235E+03  4.150E-01  1.200E+01  7.800E-01  1.138E+00  1.072E+03
   1    5    6     2     2    2.8837E+00  1.9547E+00   9.2898E-01  0.000E+00  0.000E+00  0.000E+00  1.06677E+03  2.578E-01  1.200E+01  6.000E-01  1.086E+00  1.067E+03
   1    6    6     2     3    9.2898E-01  9.2898E-01   0.0000E+00  0.000E+00  0.000E+00  0.000E+00  1.06180E+03  9.420E-03  1.200E+01  6.000E-01  1.003E+00  1.062E+03
   1    7    6     2     4    0.0000E+00  0.0000E+00   0.0000E+00  0.000E+00  0.000E+00  0.000E+00  1.05708E+03  0.000E+00  1.200E+01  6.000E-01  1.000E+00  1.057E+03
   1    8    6     2     5    0.0000E+00  0.0000E+00   0.0000E+00  0.000E+00  0.000E+00  0.000E+00  1.05236E+03  0.000E+00  1.200E+01  6.000E-01  1.000E+00  1.052E+03
   1    3    5     3     1    1.0000E+01  2.8252E+00   7.1748E+00  0.000E+00  0.000E+00  0.000E+00  1.07555E+03  1.909E+00  9.636E+00  7.227E-01  1.955E+00  1.074E+03
   1    3    6     3     2    7.1748E+00  2.0545E+00   5.1203E+00  0.000E+00  0.000E+00  0.000E+00  1.07264E+03  1.727E+00  8.909E+00  6.682E-01  1.537E+00  1.071E+03
   1    3    7     3     3    5.1203E+00  1.0719E+00   4.0484E+00  0.000E+00  0.000E+00  0.000E+00  1.06987E+03  1.555E+00  8.218E+00  5.547E-01  9.661E-01  1.068E+03
   1    4    8     3     4    4.0484E+00  1.5595E+00   2.4889E+00  0.000E+00  0.000E+00  0.000E+00  1.06682E+03  1.364E+00  7.455E+00  6.709E-01  1.162E+00  1.065E+03
   1    5    8     3     5    2.4889E+00  1.5789E+00   9.1000E-01  0.000E+00  0.000E+00  0.000E+00  1.06362E+03  1.164E+00  6.655E+00  4.991E-01  1.582E+00  1.062E+03
   1    6    8     3     6    9.1000E-01  5.5980E-01   3.5021E-01  0.000E+00  0.000E+00  0.000E+00  1.06158E+03  1.036E+00  6.145E+00  1.844E-01  1.518E+00  1.061E+03
   1    5   10     4     1    1.0000E+01  9.0525E-01   9.0947E+00  0.000E+00  0.000E+00  0.000E+00  1.07835E+03  6.210E-01  1.000E+01  2.500E-01  1.207E+00  1.078E+03
   1    5    9     4     2    9.0947E+00  1.7835E+00   7.3113E+00  0.000E+00  0.000E+00  0.000E+00  1.07148E+03  5.670E-01  1.000E+01  5.000E-01  1.189E+00  1.071E+03
   1    6    8     4     3    7.3113E+00  1.2257E+00   6.0855E+00  0.000E+00  0.000E+00  0.000E+00  1.06368E+03  5.021E-01  1.000E+01  3.500E-01  1.167E+00  1.063E+03
   1    6    8     5     1    6.4358E+00  1.0080E+00   5.4277E+00  0.000E+00  0.000E+00  0.000E+00  1.05856E+03  5.594E-01  1.106E+01  4.423E-01  7.596E-01  1.058E+03
   1    7    7     5     2    5.4277E+00  1.6658E+00   3.7619E+00  0.000E+00  0.000E+00  0.000E+00  1.05401E+03  5.116E-01  9.487E+00  4.744E-01  1.171E+00  1.054E+03
   1    8    7     5     3    3.7619E+00  9.3933E-01   2.8226E+00  0.000E+00  0.000E+00  0.000E+00  1.04971E+03  4.552E-01  7.767E+00  2.719E-01  1.152E+00  1.049E+03
   1    8    6     5     4    2.8226E+00  5.6751E-01   2.2551E+00  0.000E+00  0.000E+00  0.000E+00  1.04667E+03  4.157E-01  6.646E+00  1.661E-01  1.139E+00  1.046E+03
   1    9    6     6     1    2.2551E+00  1.9239E+00   3.3121E-01  0.000E+00  0.000E+00  0.000E+00  1.04293E+03  2.065E-01  1.200E+01  6.000E-01  1.069E+00  1.043E+03
   1   10    7     6     2    3.3121E-01  3.3121E-01   0.0000E+00  0.000E+00  0.000E+00  0.000E+00  1.03820E+03  2.052E-02  1.200E+01  6.000E-01  1.007E+00  1.038E+03
   1   11    7     6     3    0.0000E+00  0.0000E+00   0.0000E+00  0.000E+00  0.000E+00  0.000E+00  1.03364E+03  0.000E+00  1.200E+01  6.000E-01  1.000E+00  1.034E+03
   1   12    7     6     4    0.0000E+00  0.0000E+00   0.0000E+00  0.000E+00  0.000E+00  0.000E+00  1.02909E+03  0.000E+00  1.200E+01  6.000E-01  3.676E-01  1.029E+03
   1   13    7     6     5    0.0000E+00 -7.7079E-01   7.7079E-01  0.000E+00  0.000E+00  0.000E+00  1.02601E+03  9.989E-02  1.200E+01  2.400E-01 -1.071E+00  1.026E+03
   1   14    9     7     1    1.5000E+02  1.9624E+00   1.4804E+02  0.000E+00  0.000E+00  0.000E+00  1.03987E+03  2.286E+00  5.529E+01  5.592E+00  1.170E-01  1.038E+03
   1   13    8     7     2    1.4804E+02  2.9827E+00   1.4505E+02  0.000E+00  0.000E+00  0.000E+00  1.03477E+03  2.273E+00  5.523E+01  6.144E+00  1.618E-01  1.032E+03
   1   13    7     7     3    1.4505E+02  2.5483E+00   1.4251E+02  0.000E+00  0.000E+00  0.000E+00  1.02968E+03  2.258E+00  5.516E+01  5.578E+00  1.523E-01  1.027E+03
   1   13    6     8     1    1.4328E+02  8.7965E-01   1.4240E+02  0.000E+00  0.000E+00  0.000E+00  1.02464E+03  2.766E+00  4.010E+01  4.086E+00  7.175E-02  1.022E+03
   1   13    5     8     2    1.4240E+02 -2.0227E+00   1.4442E+02  0.000E+00  0.000E+00  0.000E+00  1.01839E+03  2.770E+00  4.016E+01  4.093E+00 -1.647E-01  1.016E+03
   1   13    4     8     3    1.4442E+02 -3.7994E+00   1.4822E+02  0.000E+00  0.000E+00  0.000E+00  1.01217E+03  2.791E+00  4.047E+01  4.124E+00 -3.071E-01  1.009E+03
   1   13    3     8     4    1.4822E+02 -4.1163E+00   1.5234E+02  0.000E+00  0.000E+00  0.000E+00  1.00594E+03  2.819E+00  4.087E+01  4.165E+00 -3.294E-01  1.003E+03
   1   13    2     8     5    1.5234E+02 -2.0841E+00   1.5442E+02  0.000E+00  0.000E+00  0.000E+00  9.99715E+02  2.840E+00  4.119E+01  4.197E+00 -1.655E-01  9.969E+02
   1   13    1     8     6    1.5442E+02 -4.7796E-01   1.5490E+02  0.000E+00  0.000E+00  0.000E+00  9.94724E+02  2.849E+00  4.132E+01  2.526E+00 -6.307E-02  9.919E+02



 UBDSV3 SAVING "           GW ET" ON UNIT 61 AT TIME STEP 5, STRESS PERIOD 3
 UBDSV3 SAVING "    UZF RECHARGE" ON UNIT 61 AT TIME STEP 5, STRESS PERIOD 3
 UBDSV3 SAVING " SURFACE LEAKAGE" ON UNIT 61 AT TIME STEP 5, STRESS PERIOD 3
 UBDSV3 SAVING "       HORT+DUNN" ON UNIT 61 AT TIME STEP 5, STRESS PERIOD 3
 UBDSV3 SAVING "  STORAGE CHANGE" ON UNIT 61 AT TIME STEP 5, STRESS PERIOD 3


UNSATURATED ZONE PACKAGE VOLUMETRIC BUDGET FOR  TIME STEP     5 STRESS PERIOD    3
  ------------------------------------------------------------------------------



     CUMULATIVE VOLUMES      L**3       RATES FOR THIS TIME STEP      L**3/T
     ------------------                 ------------------------

           IN:                                      IN:
           ---                                      ---
        INFILTRATION =     2.4324705E+8          INFILTRATION =            84.75

          OUT:                                     OUT:
          ----                                     ----
              UZF ET =     3.8970918E+8                UZF ET =        124.24202
        UZF RECHARGE =     5.2648489E+7          UZF RECHARGE =       12.7691613

            IN - OUT =    -1.9911062E+8              IN - OUT =      -52.2611808

          STORAGE:                                 STORAGE:
          --------                                 --------
      STORAGE CHANGE =    -1.9905919E+8        STORAGE CHANGE =      -52.2458665

 PERCENT DISCREPANCY =          -0.00     PERCENT DISCREPANCY =          -0.01




 PERCENT DISCREPANCY IS DIFFERENCE BETWEEN IN-OUT MINUS CHANGE IN STORAGE
 DIVIDED BY THE AVERAGE OF IN AND OUT TIMES 100






  -------------------------------------------------------------------------------------
  VOLUMETRIC BUDGET FOR ENTIRE MODEL AT END OF TIME STEP    5 IN STRESS PERIOD      3
  -------------------------------------------------------------------------------------

     CUMULATIVE VOLUMES      L**3       RATES FOR THIS TIME STEP      L**3/T
     ------------------                 ------------------------

           IN:                                      IN:
           ---                                      ---
             STORAGE =       32384.6612               STORAGE =       2.2546E-02
       CONSTANT HEAD =           0.0000         CONSTANT HEAD =           0.0000
               WELLS =           0.0000                 WELLS =           0.0000
     HEAD DEP BOUNDS =     1205689.3381       HEAD DEP BOUNDS =           0.2084
      STREAM LEAKAGE =   252586104.2834        STREAM LEAKAGE =          43.3731
        UZF RECHARGE =    52648488.9944          UZF RECHARGE =          12.7692
               GW ET =           0.0000                 GW ET =           0.0000
     SURFACE LEAKAGE =           0.0000       SURFACE LEAKAGE =           0.0000

            TOTAL IN =   306472667.2771              TOTAL IN =          56.3732

          OUT:                                     OUT:
          ----                                     ----
             STORAGE =    26281387.7478               STORAGE =          18.9927
       CONSTANT HEAD =           0.0000         CONSTANT HEAD =           0.0000
               WELLS =   110169716.5926                 WELLS =          10.0000
     HEAD DEP BOUNDS =     1507861.8774       HEAD DEP BOUNDS =           0.2627
      STREAM LEAKAGE =    71818813.9285        STREAM LEAKAGE =          13.2713
        UZF RECHARGE =           0.0000          UZF RECHARGE =           0.0000
               GW ET =    96652422.5149                 GW ET =          13.8433
     SURFACE LEAKAGE =           0.0000       SURFACE LEAKAGE =           0.0000

           TOTAL OUT =   306430202.6612             TOTAL OUT =          56.3699

            IN - OUT =       42464.6159              IN - OUT =       3.2905E-03

 PERCENT DISCREPANCY =           0.01     PERCENT DISCREPANCY =           0.01


          TIME SUMMARY AT END OF TIME STEP     5 IN STRESS PERIOD      3
                    SECONDS     MINUTES      HOURS       DAYS        YEARS
                    -----------------------------------------------------------
   TIME STEP LENGTH 1.21100E+05  2018.3      33.639      1.4016     3.83743E-03
 STRESS PERIOD TIME 5.04972E+05  8416.2      140.27      5.8446     1.60016E-02
         TOTAL TIME 5.76097E+06  96016.      1600.3      66.678     0.18255    
 
 
 SOLVING FOR HEAD 
     9 ITERATIONS FOR TIME STEP   6 IN STRESS PERIOD    3

 MAXIMUM HEAD CHANGE FOR EACH ITERATION:

    HEAD CHANGE   HEAD CHANGE   HEAD CHANGE   HEAD CHANGE   HEAD CHANGE
  LAYER,ROW,COL LAYER,ROW,COL LAYER,ROW,COL LAYER,ROW,COL LAYER,ROW,COL
 ----------------------------------------------------------------------
     0.3334E-01    0.1704E-01    0.8710E-02    0.4451E-02    0.2274E-02
  (  1,  3,  6) (  1,  3,  6) (  1,  3,  6) (  1,  3,  6) (  1,  3,  6)
     0.1161E-02    0.5931E-03    0.3029E-03    0.1546E-03
  (  1,  3,  6) (  1,  3,  6) (  1,  3,  6) (  1,  3,  6)


 NO OUTPUT CONTROL FOR STRESS PERIOD      3   TIME STEP     6
 
 SOLVING FOR HEAD 
     9 ITERATIONS FOR TIME STEP   7 IN STRESS PERIOD    3

 MAXIMUM HEAD CHANGE FOR EACH ITERATION:

    HEAD CHANGE   HEAD CHANGE   HEAD CHANGE   HEAD CHANGE   HEAD CHANGE
  LAYER,ROW,COL LAYER,ROW,COL LAYER,ROW,COL LAYER,ROW,COL LAYER,ROW,COL
 ----------------------------------------------------------------------
     0.3326E-01    0.1698E-01    0.8663E-02    0.4421E-02    0.2255E-02
  (  1,  3,  6) (  1,  3,  6) (  1,  3,  6) (  1,  3,  6) (  1,  3,  6)
     0.1150E-02    0.5863E-03    0.2989E-03    0.1523E-03
  (  1,  3,  6) (  1,  3,  6) (  1,  3,  6) (  1,  3,  6)


 NO OUTPUT CONTROL FOR STRESS PERIOD      3   TIME STEP     7
 
 SOLVING FOR HEAD 
     9 ITERATIONS FOR TIME STEP   8 IN STRESS PERIOD    3

 MAXIMUM HEAD CHANGE FOR EACH ITERATION:

    HEAD CHANGE   HEAD CHANGE   HEAD CHANGE   HEAD CHANGE   HEAD CHANGE
  LAYER,ROW,COL LAYER,ROW,COL LAYER,ROW,COL LAYER,ROW,COL LAYER,ROW,COL
 ----------------------------------------------------------------------
     0.3282E-01    0.1675E-01    0.8546E-02    0.4360E-02    0.2224E-02
  (  1,  3,  6) (  1,  3,  6) (  1,  3,  6) (  1,  3,  6) (  1,  3,  6)
     0.1134E-02    0.5780E-03    0.2947E-03    0.1502E-03
  (  1,  3,  6) (  1,  3,  6) (  1,  3,  6) (  1,  3,  6)


 NO OUTPUT CONTROL FOR STRESS PERIOD      3   TIME STEP     8
 
 SOLVING FOR HEAD 
    10 ITERATIONS FOR TIME STEP   9 IN STRESS PERIOD    3

 MAXIMUM HEAD CHANGE FOR EACH ITERATION:

    HEAD CHANGE   HEAD CHANGE   HEAD CHANGE   HEAD CHANGE   HEAD CHANGE
  LAYER,ROW,COL LAYER,ROW,COL LAYER,ROW,COL LAYER,ROW,COL LAYER,ROW,COL
 ----------------------------------------------------------------------
     0.5681E-01    0.2871E-01    0.1457E-01    0.7397E-02    0.3753E-02
  (  1,  3,  5) (  1,  3,  5) (  1,  3,  5) (  1,  3,  5) (  1,  3,  5)
     0.1907E-02    0.9672E-03    0.4911E-03    0.2492E-03    0.1266E-03
  (  1,  3,  5) (  1,  3,  5) (  1,  3,  5) (  1,  3,  5) (  1,  3,  5)


 NO OUTPUT CONTROL FOR STRESS PERIOD      3   TIME STEP     9
 
 SOLVING FOR HEAD 
    10 ITERATIONS FOR TIME STEP  10 IN STRESS PERIOD    3

 MAXIMUM HEAD CHANGE FOR EACH ITERATION:

    HEAD CHANGE   HEAD CHANGE   HEAD CHANGE   HEAD CHANGE   HEAD CHANGE
  LAYER,ROW,COL LAYER,ROW,COL LAYER,ROW,COL LAYER,ROW,COL LAYER,ROW,COL
 ----------------------------------------------------------------------
     0.5857E-01    0.2972E-01    0.1508E-01    0.7659E-02    0.3886E-02
  (  1,  3,  5) (  1,  3,  5) (  1,  3,  5) (  1,  3,  5) (  1,  3,  5)
     0.2061E-02    0.1097E-02    0.5834E-03    0.3103E-03    0.1650E-03
  (  1,  3,  6) (  1,  3,  6) (  1,  3,  6) (  1,  3,  6) (  1,  3,  6)


 OUTPUT CONTROL FOR STRESS PERIOD      3   TIME STEP    10
    PRINT BUDGET
    SAVE BUDGET

           WELLS   PERIOD 3   STEP 10
WELL          1   LAYER          1   ROW          6   COL          4   RATE -1.0
WELL          2   LAYER          1   ROW          6   COL          5   RATE -1.0
WELL          3   LAYER          1   ROW          7   COL          4   RATE -1.0
WELL          4   LAYER          1   ROW          7   COL          5   RATE -1.0
WELL          5   LAYER          1   ROW          8   COL          4   RATE -1.0
WELL          6   LAYER          1   ROW          8   COL          5   RATE -1.0
WELL          7   LAYER          1   ROW          9   COL          4   RATE -1.0
WELL          8   LAYER          1   ROW          9   COL          5   RATE -1.0
WELL          9   LAYER          1   ROW         10   COL          4   RATE -1.0
WELL         10   LAYER          1   ROW         10   COL          5   RATE -1.0

  HEAD DEP BOUNDS   PERIOD    3   STEP  10
 BOUNDARY      1   LAYER   1   ROW    13   COL     1   RATE   -0.262844       COND    0.380000E-01
 BOUNDARY      2   LAYER   1   ROW    14   COL     9   RATE    0.208367       COND    0.380000E-01



 STREAM LISTING     PERIOD      3   STEP       10

 LAYER ROW COL. STREAM  RCH.  FLOW INTO     FLOW TO   FLOW OUT OF   OVRLND.     DIRECT     STREAM       STREAM     STREAM     STREAM   STREAMBED  STREAMBED  STREAMBED
                SEG.NO.  NO.  STRM. RCH.    AQUIFER    STRM. RCH.    RUNOFF     PRECIP       ET          HEAD       DEPTH      WIDTH   CONDCTNC.   GRADIENT  ELEVATION

   1    1    1     1     1    2.5000E+01  1.0144E+00   2.3986E+01  0.000E+00  0.000E+00  0.000E+00  1.09422E+03  1.173E+00  1.296E+01  5.832E-01  5.798E-01  1.093E+03
   1    2    2     1     2    2.3986E+01  3.0412E+00   2.0944E+01  0.000E+00  0.000E+00  0.000E+00  1.08920E+03  1.141E+00  1.254E+01  8.779E-01  1.155E+00  1.088E+03
   1    3    3     1     3    2.0944E+01  2.9085E+00   1.8036E+01  0.000E+00  0.000E+00  0.000E+00  1.08351E+03  1.092E+00  1.185E+01  7.108E-01  1.364E+00  1.082E+03
   1    3    4     1     4    1.8036E+01  2.4707E+00   1.5565E+01  0.000E+00  0.000E+00  0.000E+00  1.07845E+03  1.046E+00  1.100E+01  6.107E-01  1.349E+00  1.077E+03
   1    4    5     2     1    5.5652E+00  2.6645E+00   2.9007E+00  0.000E+00  0.000E+00  0.000E+00  1.07235E+03  4.160E-01  1.200E+01  7.800E-01  1.139E+00  1.072E+03
   1    5    6     2     2    2.9007E+00  1.9555E+00   9.4520E-01  0.000E+00  0.000E+00  0.000E+00  1.06677E+03  2.591E-01  1.200E+01  6.000E-01  1.086E+00  1.067E+03
   1    6    6     2     3    9.4520E-01  9.4520E-01   0.0000E+00  0.000E+00  0.000E+00  0.000E+00  1.06181E+03  1.904E-02  1.200E+01  6.000E-01  1.006E+00  1.062E+03
   1    7    6     2     4    0.0000E+00  0.0000E+00   0.0000E+00  0.000E+00  0.000E+00  0.000E+00  1.05708E+03  0.000E+00  1.200E+01  6.000E-01  1.000E+00  1.057E+03
   1    8    6     2     5    0.0000E+00  0.0000E+00   0.0000E+00  0.000E+00  0.000E+00  0.000E+00  1.05236E+03  0.000E+00  1.200E+01  6.000E-01  1.000E+00  1.052E+03
   1    3    5     3     1    1.0000E+01  2.8252E+00   7.1748E+00  0.000E+00  0.000E+00  0.000E+00  1.07555E+03  1.909E+00  9.636E+00  7.227E-01  1.955E+00  1.074E+03
   1    3    6     3     2    7.1748E+00  1.8073E+00   5.3675E+00  0.000E+00  0.000E+00  0.000E+00  1.07264E+03  1.727E+00  8.909E+00  6.682E-01  1.352E+00  1.071E+03
   1    3    7     3     3    5.3675E+00  9.2970E-01   4.4378E+00  0.000E+00  0.000E+00  0.000E+00  1.06987E+03  1.555E+00  8.218E+00  5.547E-01  8.380E-01  1.068E+03
   1    4    8     3     4    4.4378E+00  1.5469E+00   2.8909E+00  0.000E+00  0.000E+00  0.000E+00  1.06682E+03  1.364E+00  7.455E+00  6.709E-01  1.153E+00  1.065E+03
   1    5    8     3     5    2.8909E+00  1.5789E+00   1.3120E+00  0.000E+00  0.000E+00  0.000E+00  1.06362E+03  1.164E+00  6.655E+00  4.991E-01  1.582E+00  1.062E+03
   1    6    8     3     6    1.3120E+00  5.5980E-01   7.5217E-01  0.000E+00  0.000E+00  0.000E+00  1.06158E+03  1.036E+00  6.145E+00  1.844E-01  1.518E+00  1.061E+03
   1    5   10     4     1    1.0000E+01  9.0525E-01   9.0947E+00  0.000E+00  0.000E+00  0.000E+00  1.07835E+03  6.210E-01  1.000E+01  2.500E-01  1.207E+00  1.078E+03
   1    5    9     4     2    9.0947E+00  1.7835E+00   7.3113E+00  0.000E+00  0.000E+00  0.000E+00  1.07148E+03  5.670E-01  1.000E+01  5.000E-01  1.189E+00  1.071E+03
   1    6    8     4     3    7.3113E+00  1.2257E+00   6.0855E+00  0.000E+00  0.000E+00  0.000E+00  1.06368E+03  5.021E-01  1.000E+01  3.500E-01  1.167E+00  1.063E+03
   1    6    8     5     1    6.8377E+00  1.0398E+00   5.7979E+00  0.000E+00  0.000E+00  0.000E+00  1.05857E+03  5.719E-01  1.148E+01  4.594E-01  7.545E-01  1.058E+03
   1    7    7     5     2    5.7979E+00  1.7431E+00   4.0548E+00  0.000E+00  0.000E+00  0.000E+00  1.05402E+03  5.242E-01  9.892E+00  4.946E-01  1.175E+00  1.054E+03
   1    8    7     5     3    4.0548E+00  9.8817E-01   3.0666E+00  0.000E+00  0.000E+00  0.000E+00  1.04972E+03  4.679E-01  8.141E+00  2.849E-01  1.156E+00  1.049E+03
   1    8    6     5     4    3.0666E+00  5.9976E-01   2.4668E+00  0.000E+00  0.000E+00  0.000E+00  1.04668E+03  4.284E-01  6.998E+00  1.749E-01  1.143E+00  1.046E+03
   1    9    6     6     1    2.4668E+00  1.9354E+00   5.3145E-01  0.000E+00  0.000E+00  0.000E+00  1.04295E+03  2.257E-01  1.200E+01  6.000E-01  1.075E+00  1.043E+03
   1   10    7     6     2    5.3145E-01  5.3145E-01   0.0000E+00  0.000E+00  0.000E+00  0.000E+00  1.03821E+03  2.725E-02  1.200E+01  6.000E-01  1.009E+00  1.038E+03
   1   11    7     6     3    0.0000E+00  0.0000E+00   0.0000E+00  0.000E+00  0.000E+00  0.000E+00  1.03364E+03  0.000E+00  1.200E+01  6.000E-01  1.000E+00  1.034E+03
   1   12    7     6     4    0.0000E+00  0.0000E+00   0.0000E+00  0.000E+00  0.000E+00  0.000E+00  1.02909E+03  0.000E+00  1.200E+01  6.000E-01  3.584E-01  1.029E+03
   1   13    7     6     5    0.0000E+00 -7.7136E-01   7.7136E-01  0.000E+00  0.000E+00  0.000E+00  1.02601E+03  9.993E-02  1.200E+01  2.400E-01 -1.071E+00  1.026E+03
   1   14    9     7     1    1.5000E+02  1.9575E+00   1.4804E+02  0.000E+00  0.000E+00  0.000E+00  1.03987E+03  2.286E+00  5.529E+01  5.592E+00  1.167E-01  1.038E+03
   1   13    8     7     2    1.4804E+02  2.9709E+00   1.4507E+02  0.000E+00  0.000E+00  0.000E+00  1.03477E+03  2.273E+00  5.523E+01  6.144E+00  1.612E-01  1.032E+03
   1   13    7     7     3    1.4507E+02  2.5354E+00   1.4254E+02  0.000E+00  0.000E+00  0.000E+00  1.02968E+03  2.258E+00  5.516E+01  5.578E+00  1.515E-01  1.027E+03
   1   13    6     8     1    1.4331E+02  8.5994E-01   1.4245E+02  0.000E+00  0.000E+00  0.000E+00  1.02464E+03  2.766E+00  4.011E+01  4.087E+00  7.014E-02  1.022E+03
   1   13    5     8     2    1.4245E+02 -2.1008E+00   1.4455E+02  0.000E+00  0.000E+00  0.000E+00  1.01840E+03  2.770E+00  4.017E+01  4.094E+00 -1.711E-01  1.016E+03
   1   13    4     8     3    1.4455E+02 -3.8732E+00   1.4842E+02  0.000E+00  0.000E+00  0.000E+00  1.01217E+03  2.792E+00  4.048E+01  4.125E+00 -3.130E-01  1.009E+03
   1   13    3     8     4    1.4842E+02 -4.1907E+00   1.5261E+02  0.000E+00  0.000E+00  0.000E+00  1.00595E+03  2.820E+00  4.090E+01  4.168E+00 -3.352E-01  1.003E+03
   1   13    2     8     5    1.5261E+02 -2.0928E+00   1.5471E+02  0.000E+00  0.000E+00  0.000E+00  9.99717E+02  2.842E+00  4.121E+01  4.200E+00 -1.661E-01  9.969E+02
   1   13    1     8     6    1.5471E+02 -4.8187E-01   1.5519E+02  0.000E+00  0.000E+00  0.000E+00  9.94726E+02  2.851E+00  4.134E+01  2.528E+00 -6.354E-02  9.919E+02



 UBDSV3 SAVING "           GW ET" ON UNIT 61 AT TIME STEP 10, STRESS PERIOD 3
 UBDSV3 SAVING "    UZF RECHARGE" ON UNIT 61 AT TIME STEP 10, STRESS PERIOD 3
 UBDSV3 SAVING " SURFACE LEAKAGE" ON UNIT 61 AT TIME STEP 10, STRESS PERIOD 3
 UBDSV3 SAVING "       HORT+DUNN" ON UNIT 61 AT TIME STEP 10, STRESS PERIOD 3
 UBDSV3 SAVING "  STORAGE CHANGE" ON UNIT 61 AT TIME STEP 10, STRESS PERIOD 3


UNSATURATED ZONE PACKAGE VOLUMETRIC BUDGET FOR  TIME STEP    10 STRESS PERIOD    3
  ------------------------------------------------------------------------------



     CUMULATIVE VOLUMES      L**3       RATES FOR THIS TIME STEP      L**3/T
     ------------------                 ------------------------

           IN:                                      IN:
           ---                                      ---
        INFILTRATION =     3.1217099E+8          INFILTRATION =            84.75

          OUT:                                     OUT:
          ----                                     ----
              UZF ET =     4.9069798E+8                UZF ET =        124.12912
        UZF RECHARGE =     6.4381031E+7          UZF RECHARGE =       15.4899877

            IN - OUT =    -2.4290802E+8              IN - OUT =      -54.8691046

          STORAGE:                                 STORAGE:
          --------                                 --------
      STORAGE CHANGE =    -2.4284241E+8        STORAGE CHANGE =      -54.8661099

 PERCENT DISCREPANCY =          -0.00     PERCENT DISCREPANCY =          -0.00




 PERCENT DISCREPANCY IS DIFFERENCE BETWEEN IN-OUT MINUS CHANGE IN STORAGE
 DIVIDED BY THE AVERAGE OF IN AND OUT TIMES 100






  -------------------------------------------------------------------------------------
  VOLUMETRIC BUDGET FOR ENTIRE MODEL AT END OF TIME STEP   10 IN STRESS PERIOD      3
  -------------------------------------------------------------------------------------

     CUMULATIVE VOLUMES      L**3       RATES FOR THIS TIME STEP      L**3/T
     ------------------                 ------------------------

           IN:                                      IN:
           ---                                      ---
             STORAGE =       51438.6628               STORAGE =       2.3809E-02
       CONSTANT HEAD =           0.0000         CONSTANT HEAD =           0.0000
               WELLS =           0.0000                 WELLS =           0.0000
     HEAD DEP BOUNDS =     1375155.7463       HEAD DEP BOUNDS =           0.2084
      STREAM LEAKAGE =   287834967.1092        STREAM LEAKAGE =          43.3237
        UZF RECHARGE =    64381030.8663          UZF RECHARGE =          15.4900
               GW ET =           0.0000                 GW ET =           0.0000
     SURFACE LEAKAGE =           0.0000       SURFACE LEAKAGE =           0.0000

            TOTAL IN =   353642592.3847              TOTAL IN =          59.0459

          OUT:                                     OUT:
          ----                                     ----
             STORAGE =    42868011.0213               STORAGE =          21.3015
       CONSTANT HEAD =           0.0000         CONSTANT HEAD =           0.0000
               WELLS =   118302335.6622                 WELLS =          10.0000
     HEAD DEP BOUNDS =     1721583.7727       HEAD DEP BOUNDS =           0.2628
      STREAM LEAKAGE =    82736876.3422        STREAM LEAKAGE =          13.5107
        UZF RECHARGE =           0.0000          UZF RECHARGE =           0.0000
               GW ET =   107968543.0085                 GW ET =          13.9674
     SURFACE LEAKAGE =           0.0000       SURFACE LEAKAGE =           0.0000

           TOTAL OUT =   353597349.8068             TOTAL OUT =          59.0424

            IN - OUT =       45242.5778              IN - OUT =       3.4539E-03

 PERCENT DISCREPANCY =           0.01     PERCENT DISCREPANCY =           0.01


          TIME SUMMARY AT END OF TIME STEP    10 IN STRESS PERIOD      3
                    SECONDS     MINUTES      HOURS       DAYS        YEARS
                    -----------------------------------------------------------
   TIME STEP LENGTH 1.95033E+05  3250.6      54.176      2.2573     6.18023E-03
 STRESS PERIOD TIME 1.31823E+06  21971.      366.18      15.257     4.17723E-02
         TOTAL TIME 6.57423E+06 1.09571E+05  1826.2      76.091     0.20832    
 
 
 SOLVING FOR HEAD 
    10 ITERATIONS FOR TIME STEP  11 IN STRESS PERIOD    3

 MAXIMUM HEAD CHANGE FOR EACH ITERATION:

    HEAD CHANGE   HEAD CHANGE   HEAD CHANGE   HEAD CHANGE   HEAD CHANGE
  LAYER,ROW,COL LAYER,ROW,COL LAYER,ROW,COL LAYER,ROW,COL LAYER,ROW,COL
 ----------------------------------------------------------------------
     0.6265E-01    0.3171E-01    0.1604E-01    0.8130E-02    0.4291E-02
  (  1,  3,  5) (  1,  3,  5) (  1,  3,  5) (  1,  3,  5) (  1,  3,  6)
     0.2287E-02    0.1218E-02    0.6486E-03    0.3452E-03    0.1837E-03
  (  1,  3,  6) (  1,  3,  6) (  1,  3,  6) (  1,  3,  6) (  1,  3,  6)


 NO OUTPUT CONTROL FOR STRESS PERIOD      3   TIME STEP    11
 
 SOLVING FOR HEAD 
    11 ITERATIONS FOR TIME STEP  12 IN STRESS PERIOD    3

 MAXIMUM HEAD CHANGE FOR EACH ITERATION:

    HEAD CHANGE   HEAD CHANGE   HEAD CHANGE   HEAD CHANGE   HEAD CHANGE
  LAYER,ROW,COL LAYER,ROW,COL LAYER,ROW,COL LAYER,ROW,COL LAYER,ROW,COL
 ----------------------------------------------------------------------
     0.8989E-01    0.4811E-01    0.2574E-01    0.1379E-01    0.7378E-02
  (  1,  3,  5) (  1,  3,  5) (  1,  3,  5) (  1,  3,  5) (  1,  3,  5)
     0.3954E-02    0.2114E-02    0.1132E-02    0.6055E-03    0.3243E-03
  (  1,  3,  5) (  1,  3,  5) (  1,  3,  5) (  1,  3,  5) (  1,  3,  5)
     0.1736E-03
  (  1,  3,  5)


 NO OUTPUT CONTROL FOR STRESS PERIOD      3   TIME STEP    12
 
 SOLVING FOR HEAD 
    11 ITERATIONS FOR TIME STEP  13 IN STRESS PERIOD    3

 MAXIMUM HEAD CHANGE FOR EACH ITERATION:

    HEAD CHANGE   HEAD CHANGE   HEAD CHANGE   HEAD CHANGE   HEAD CHANGE
  LAYER,ROW,COL LAYER,ROW,COL LAYER,ROW,COL LAYER,ROW,COL LAYER,ROW,COL
 ----------------------------------------------------------------------
     0.8893E-01    0.4741E-01    0.2527E-01    0.1348E-01    0.7184E-02
  (  1,  3,  5) (  1,  3,  5) (  1,  3,  5) (  1,  3,  5) (  1,  3,  5)
     0.3836E-02    0.2043E-02    0.1089E-02    0.5803E-03    0.3096E-03
  (  1,  3,  5) (  1,  3,  5) (  1,  3,  5) (  1,  3,  5) (  1,  3,  5)
     0.1651E-03
  (  1,  3,  5)


 NO OUTPUT CONTROL FOR STRESS PERIOD      3   TIME STEP    13
 
 SOLVING FOR HEAD 
    11 ITERATIONS FOR TIME STEP  14 IN STRESS PERIOD    3

 MAXIMUM HEAD CHANGE FOR EACH ITERATION:

    HEAD CHANGE   HEAD CHANGE   HEAD CHANGE   HEAD CHANGE   HEAD CHANGE
  LAYER,ROW,COL LAYER,ROW,COL LAYER,ROW,COL LAYER,ROW,COL LAYER,ROW,COL
 ----------------------------------------------------------------------
     0.8803E-01    0.4680E-01    0.2486E-01    0.1323E-01    0.7027E-02
  (  1,  3,  5) (  1,  3,  5) (  1,  3,  5) (  1,  3,  5) (  1,  3,  5)
     0.3741E-02    0.1986E-02    0.1056E-02    0.5609E-03    0.2984E-03
  (  1,  3,  5) (  1,  3,  5) (  1,  3,  5) (  1,  3,  5) (  1,  3,  5)
     0.1587E-03
  (  1,  3,  5)


 NO OUTPUT CONTROL FOR STRESS PERIOD      3   TIME STEP    14
 
 SOLVING FOR HEAD 
    11 ITERATIONS FOR TIME STEP  15 IN STRESS PERIOD    3

 MAXIMUM HEAD CHANGE FOR EACH ITERATION:

    HEAD CHANGE   HEAD CHANGE   HEAD CHANGE   HEAD CHANGE   HEAD CHANGE
  LAYER,ROW,COL LAYER,ROW,COL LAYER,ROW,COL LAYER,ROW,COL LAYER,ROW,COL
 ----------------------------------------------------------------------
     0.8777E-01    0.4656E-01    0.2470E-01    0.1318E-01    0.7015E-02
  (  1,  3,  5) (  1,  3,  5) (  1,  3,  5) (  1,  3,  5) (  1,  3,  5)
     0.3745E-02    0.1992E-02    0.1062E-02    0.5651E-03    0.3014E-03
  (  1,  3,  5) (  1,  3,  5) (  1,  3,  5) (  1,  3,  5) (  1,  3,  5)
     0.1606E-03
  (  1,  3,  5)


 OUTPUT CONTROL FOR STRESS PERIOD      3   TIME STEP    15
    PRINT BUDGET
    PRINT HEAD FOR ALL LAYERS
    SAVE HEAD FOR ALL LAYERS
    SAVE BUDGET

           WELLS   PERIOD 3   STEP 15
WELL          1   LAYER          1   ROW          6   COL          4   RATE -1.0
WELL          2   LAYER          1   ROW          6   COL          5   RATE -1.0
WELL          3   LAYER          1   ROW          7   COL          4   RATE -1.0
WELL          4   LAYER          1   ROW          7   COL          5   RATE -1.0
WELL          5   LAYER          1   ROW          8   COL          4   RATE -1.0
WELL          6   LAYER          1   ROW          8   COL          5   RATE -1.0
WELL          7   LAYER          1   ROW          9   COL          4   RATE -1.0
WELL          8   LAYER          1   ROW          9   COL          5   RATE -1.0
WELL          9   LAYER          1   ROW         10   COL          4   RATE -1.0
WELL         10   LAYER          1   ROW         10   COL          5   RATE -1.0

  HEAD DEP BOUNDS   PERIOD    3   STEP  15
 BOUNDARY      1   LAYER   1   ROW    13   COL     1   RATE   -0.262969       COND    0.380000E-01
 BOUNDARY      2   LAYER   1   ROW    14   COL     9   RATE    0.208334       COND    0.380000E-01



 STREAM LISTING     PERIOD      3   STEP       15

 LAYER ROW COL. STREAM  RCH.  FLOW INTO     FLOW TO   FLOW OUT OF   OVRLND.     DIRECT     STREAM       STREAM     STREAM     STREAM   STREAMBED  STREAMBED  STREAMBED
                SEG.NO.  NO.  STRM. RCH.    AQUIFER    STRM. RCH.    RUNOFF     PRECIP       ET          HEAD       DEPTH      WIDTH   CONDCTNC.   GRADIENT  ELEVATION

   1    1    1     1     1    2.5000E+01  1.0032E+00   2.3997E+01  0.000E+00  0.000E+00  0.000E+00  1.09422E+03  1.173E+00  1.296E+01  5.833E-01  5.733E-01  1.093E+03
   1    2    2     1     2    2.3997E+01  3.0260E+00   2.0971E+01  0.000E+00  0.000E+00  0.000E+00  1.08920E+03  1.141E+00  1.255E+01  8.782E-01  1.149E+00  1.088E+03
   1    3    3     1     3    2.0971E+01  2.9107E+00   1.8060E+01  0.000E+00  0.000E+00  0.000E+00  1.08351E+03  1.092E+00  1.185E+01  7.113E-01  1.364E+00  1.082E+03
   1    3    4     1     4    1.8060E+01  2.4727E+00   1.5587E+01  0.000E+00  0.000E+00  0.000E+00  1.07845E+03  1.046E+00  1.101E+01  6.111E-01  1.349E+00  1.077E+03
   1    4    5     2     1    5.5875E+00  2.6655E+00   2.9220E+00  0.000E+00  0.000E+00  0.000E+00  1.07235E+03  4.173E-01  1.200E+01  7.800E-01  1.139E+00  1.072E+03
   1    5    6     2     2    2.9220E+00  1.9565E+00   9.6549E-01  0.000E+00  0.000E+00  0.000E+00  1.06677E+03  2.608E-01  1.200E+01  6.000E-01  1.087E+00  1.067E+03
   1    6    6     2     3    9.6549E-01  9.6549E-01   0.0000E+00  0.000E+00  0.000E+00  0.000E+00  1.06181E+03  1.928E-02  1.200E+01  6.000E-01  1.006E+00  1.062E+03
   1    7    6     2     4    0.0000E+00  0.0000E+00   0.0000E+00  0.000E+00  0.000E+00  0.000E+00  1.05708E+03  0.000E+00  1.200E+01  6.000E-01  1.000E+00  1.057E+03
   1    8    6     2     5    0.0000E+00  0.0000E+00   0.0000E+00  0.000E+00  0.000E+00  0.000E+00  1.05236E+03  0.000E+00  1.200E+01  6.000E-01  1.000E+00  1.052E+03
   1    3    5     3     1    1.0000E+01  2.8252E+00   7.1748E+00  0.000E+00  0.000E+00  0.000E+00  1.07555E+03  1.909E+00  9.636E+00  7.227E-01  1.955E+00  1.074E+03
   1    3    6     3     2    7.1748E+00  1.4658E+00   5.7090E+00  0.000E+00  0.000E+00  0.000E+00  1.07264E+03  1.727E+00  8.909E+00  6.682E-01  1.097E+00  1.071E+03
   1    3    7     3     3    5.7090E+00  7.0818E-01   5.0008E+00  0.000E+00  0.000E+00  0.000E+00  1.06987E+03  1.555E+00  8.218E+00  5.547E-01  6.383E-01  1.068E+03
   1    4    8     3     4    5.0008E+00  1.5732E+00   3.4277E+00  0.000E+00  0.000E+00  0.000E+00  1.06682E+03  1.364E+00  7.455E+00  6.709E-01  1.172E+00  1.065E+03
   1    5    8     3     5    3.4277E+00  1.5789E+00   1.8487E+00  0.000E+00  0.000E+00  0.000E+00  1.06362E+03  1.164E+00  6.655E+00  4.991E-01  1.582E+00  1.062E+03
   1    6    8     3     6    1.8487E+00  5.5980E-01   1.2889E+00  0.000E+00  0.000E+00  0.000E+00  1.06158E+03  1.036E+00  6.145E+00  1.844E-01  1.518E+00  1.061E+03
   1    5   10     4     1    1.0000E+01  9.0525E-01   9.0947E+00  0.000E+00  0.000E+00  0.000E+00  1.07835E+03  6.210E-01  1.000E+01  2.500E-01  1.207E+00  1.078E+03
   1    5    9     4     2    9.0947E+00  1.7835E+00   7.3113E+00  0.000E+00  0.000E+00  0.000E+00  1.07148E+03  5.670E-01  1.000E+01  5.000E-01  1.189E+00  1.071E+03
   1    6    8     4     3    7.3113E+00  1.2257E+00   6.0855E+00  0.000E+00  0.000E+00  0.000E+00  1.06368E+03  5.021E-01  1.000E+01  3.500E-01  1.167E+00  1.063E+03
   1    6    8     5     1    7.3745E+00  1.0756E+00   6.2988E+00  0.000E+00  0.000E+00  0.000E+00  1.05859E+03  5.879E-01  1.204E+01  4.817E-01  7.444E-01  1.058E+03
   1    7    7     5     2    6.2988E+00  1.8454E+00   4.4534E+00  0.000E+00  0.000E+00  0.000E+00  1.05404E+03  5.405E-01  1.042E+01  5.212E-01  1.180E+00  1.054E+03
   1    8    7     5     3    4.4534E+00  1.0529E+00   3.4005E+00  0.000E+00  0.000E+00  0.000E+00  1.04973E+03  4.842E-01  8.634E+00  3.022E-01  1.161E+00  1.049E+03
   1    8    6     5     4    3.4005E+00  6.4259E-01   2.7579E+00  0.000E+00  0.000E+00  0.000E+00  1.04669E+03  4.447E-01  7.462E+00  1.865E-01  1.148E+00  1.046E+03
   1    9    6     6     1    2.7579E+00  1.9502E+00   8.0770E-01  0.000E+00  0.000E+00  0.000E+00  1.04298E+03  2.504E-01  1.200E+01  6.000E-01  1.083E+00  1.043E+03
   1   10    7     6     2    8.0770E-01  8.0770E-01   0.0000E+00  0.000E+00  0.000E+00  0.000E+00  1.03822E+03  3.503E-02  1.200E+01  6.000E-01  1.012E+00  1.038E+03
   1   11    7     6     3    0.0000E+00  0.0000E+00   0.0000E+00  0.000E+00  0.000E+00  0.000E+00  1.03364E+03  0.000E+00  1.200E+01  6.000E-01  1.000E+00  1.034E+03
   1   12    7     6     4    0.0000E+00  0.0000E+00   0.0000E+00  0.000E+00  0.000E+00  0.000E+00  1.02909E+03  0.000E+00  1.200E+01  6.000E-01  3.459E-01  1.029E+03
   1   13    7     6     5    0.0000E+00 -7.7213E-01   7.7213E-01  0.000E+00  0.000E+00  0.000E+00  1.02601E+03  9.999E-02  1.200E+01  2.400E-01 -1.072E+00  1.026E+03
   1   14    9     7     1    1.5000E+02  1.9527E+00   1.4805E+02  0.000E+00  0.000E+00  0.000E+00  1.03987E+03  2.286E+00  5.529E+01  5.592E+00  1.164E-01  1.038E+03
   1   13    8     7     2    1.4805E+02  2.9629E+00   1.4508E+02  0.000E+00  0.000E+00  0.000E+00  1.03477E+03  2.273E+00  5.523E+01  6.144E+00  1.607E-01  1.032E+03
   1   13    7     7     3    1.4508E+02  2.5179E+00   1.4257E+02  0.000E+00  0.000E+00  0.000E+00  1.02968E+03  2.258E+00  5.516E+01  5.579E+00  1.505E-01  1.027E+03
   1   13    6     8     1    1.4334E+02  8.3542E-01   1.4250E+02  0.000E+00  0.000E+00  0.000E+00  1.02464E+03  2.766E+00  4.011E+01  4.087E+00  6.813E-02  1.022E+03
   1   13    5     8     2    1.4250E+02 -2.1540E+00   1.4466E+02  0.000E+00  0.000E+00  0.000E+00  1.01840E+03  2.771E+00  4.018E+01  4.094E+00 -1.754E-01  1.016E+03
   1   13    4     8     3    1.4466E+02 -3.9211E+00   1.4858E+02  0.000E+00  0.000E+00  0.000E+00  1.01217E+03  2.793E+00  4.050E+01  4.127E+00 -3.167E-01  1.009E+03
   1   13    3     8     4    1.4858E+02 -4.2344E+00   1.5281E+02  0.000E+00  0.000E+00  0.000E+00  1.00595E+03  2.822E+00  4.092E+01  4.169E+00 -3.385E-01  1.003E+03
   1   13    2     8     5    1.5281E+02 -2.1030E+00   1.5492E+02  0.000E+00  0.000E+00  0.000E+00  9.99719E+02  2.844E+00  4.124E+01  4.202E+00 -1.668E-01  9.969E+02
   1   13    1     8     6    1.5492E+02 -4.8675E-01   1.5540E+02  0.000E+00  0.000E+00  0.000E+00  9.94728E+02  2.853E+00  4.137E+01  2.529E+00 -6.415E-02  9.919E+02



 UBDSV3 SAVING "           GW ET" ON UNIT 61 AT TIME STEP 15, STRESS PERIOD 3
 UBDSV3 SAVING "    UZF RECHARGE" ON UNIT 61 AT TIME STEP 15, STRESS PERIOD 3
 UBDSV3 SAVING " SURFACE LEAKAGE" ON UNIT 61 AT TIME STEP 15, STRESS PERIOD 3
 UBDSV3 SAVING "       HORT+DUNN" ON UNIT 61 AT TIME STEP 15, STRESS PERIOD 3
 UBDSV3 SAVING "  STORAGE CHANGE" ON UNIT 61 AT TIME STEP 15, STRESS PERIOD 3


UNSATURATED ZONE PACKAGE VOLUMETRIC BUDGET FOR  TIME STEP    15 STRESS PERIOD    3
  ------------------------------------------------------------------------------



     CUMULATIVE VOLUMES      L**3       RATES FOR THIS TIME STEP      L**3/T
     ------------------                 ------------------------

           IN:                                      IN:
           ---                                      ---
        INFILTRATION =     4.2317370E+8          INFILTRATION =            84.75

          OUT:                                     OUT:
          ----                                     ----
              UZF ET =     6.4064760E+8                UZF ET =        108.56649
        UZF RECHARGE =     8.5583251E+7          UZF RECHARGE =       15.9820464

            IN - OUT =    -3.0305715E+8              IN - OUT =      -39.7985369

          STORAGE:                                 STORAGE:
          --------                                 --------
      STORAGE CHANGE =    -3.0296077E+8        STORAGE CHANGE =      -39.7637896

 PERCENT DISCREPANCY =          -0.00     PERCENT DISCREPANCY =          -0.03




 PERCENT DISCREPANCY IS DIFFERENCE BETWEEN IN-OUT MINUS CHANGE IN STORAGE
 DIVIDED BY THE AVERAGE OF IN AND OUT TIMES 100



1
              HEAD IN LAYER   1 AT END OF TIME STEP  15 IN STRESS PERIOD    3
  ---------------------------------------------------------------------------

           1       2       3       4       5       6       7       8       9      10
 ...................................................................................
   1  1092.50 1088.67 6999.00 6999.00 6999.00 6999.00 6999.00 6999.00 6999.00 6999.00
   2  1089.21 1085.75 1079.05 6999.00 6999.00 1071.67 1070.91 1070.38 6999.00 6999.00
   3  6999.00 1077.35 1074.20 1069.91 1071.34 1070.44 1068.60 1067.88 6999.00 6999.00
   4  1067.82 1068.31 1066.44 1062.76 1061.62 1060.40 1061.26 1064.47 1063.74 6999.00
   5  1063.68 1061.23 1058.43 1056.24 1056.00 1056.74 1056.83 1059.23 1062.85 1065.29
   6  1058.99 1055.27 1051.90 1049.84 1050.22 1052.05 1053.63 1056.35 1059.24 1063.62
   7  1055.33 1049.59 1045.97 1044.05 1044.79 1046.97 1049.75 1052.41 1054.06 6999.00
   8  6999.00 1042.24 1039.89 1038.43 1039.45 1041.83 1043.93 1046.91 1049.11 6999.00
   9  6999.00 1035.31 1033.92 1033.13 1034.47 1037.00 1038.14 1040.44 1043.70 6999.00
  10  6999.00 1028.30 1028.06 1028.42 1030.02 1032.19 1033.67 1035.88 1039.94 1044.37
  11  6999.00 1019.58 1020.98 1024.15 1026.25 1028.49 1030.12 1032.65 1036.23 6999.00
  12  1001.16 1008.80 1013.99 1018.71 1022.37 1025.64 1028.05 1031.09 1034.81 6999.00
  13   994.92 1000.22 1006.96 1013.12 1018.92 1024.44 1029.23 1034.29 1036.45 6999.00
  14  6999.00 1005.81 1011.49 1016.20 1021.24 1026.07 1030.49 1035.38 1039.52 6999.00
  15  6999.00 6999.00 1018.83 1021.82 1025.56 1028.54 6999.00 6999.00 6999.00 6999.00

 HEAD WILL BE SAVED ON UNIT   58 AT END OF TIME STEP    15 IN STRESS PERIOD      3



  -------------------------------------------------------------------------------------
  VOLUMETRIC BUDGET FOR ENTIRE MODEL AT END OF TIME STEP   15 IN STRESS PERIOD      3
  -------------------------------------------------------------------------------------

     CUMULATIVE VOLUMES      L**3       RATES FOR THIS TIME STEP      L**3/T
     ------------------                 ------------------------

           IN:                                      IN:
           ---                                      ---
             STORAGE =      305835.0739               STORAGE =           0.2044
       CONSTANT HEAD =           0.0000         CONSTANT HEAD =           0.0000
               WELLS =           0.0000                 WELLS =           0.0000
     HEAD DEP BOUNDS =     1648039.6947       HEAD DEP BOUNDS =           0.2083
      STREAM LEAKAGE =   344532702.8112        STREAM LEAKAGE =          43.2690
        UZF RECHARGE =    85583250.5032          UZF RECHARGE =          15.9820
               GW ET =           0.0000                 GW ET =           0.0000
     SURFACE LEAKAGE =           0.0000       SURFACE LEAKAGE =           0.0000

            TOTAL IN =   432069828.0830              TOTAL IN =          59.6638

          OUT:                                     OUT:
          ----                                     ----
             STORAGE =    71041488.9631               STORAGE =          21.0674
       CONSTANT HEAD =           0.0000         CONSTANT HEAD =           0.0000
               WELLS =   131400000.0000                 WELLS =          10.0000
     HEAD DEP BOUNDS =     2065954.5869       HEAD DEP BOUNDS =           0.2630
      STREAM LEAKAGE =   100574516.6266        STREAM LEAKAGE =          13.6713
        UZF RECHARGE =           0.0000          UZF RECHARGE =           0.0000
               GW ET =   126939557.2724                 GW ET =          14.6603
     SURFACE LEAKAGE =           0.0000       SURFACE LEAKAGE =           0.0000

           TOTAL OUT =   432021517.4490             TOTAL OUT =          59.6620

            IN - OUT =       48310.6341              IN - OUT =       1.7162E-03

 PERCENT DISCREPANCY =           0.01     PERCENT DISCREPANCY =           0.00


          TIME SUMMARY AT END OF TIME STEP    15 IN STRESS PERIOD      3
                    SECONDS     MINUTES      HOURS       DAYS        YEARS
                    -----------------------------------------------------------
   TIME STEP LENGTH 3.14103E+05  5235.0      87.251      3.6354     9.95332E-03
 STRESS PERIOD TIME 2.62800E+06  43800.      730.00      30.417     8.32763E-02
         TOTAL TIME 7.88400E+06 1.31400E+05  2190.0      91.250     0.24983    
 
1
                            STRESS PERIOD NO.      4, LENGTH =   2628000.    
                            -----------------------------------------------

                              NUMBER OF TIME STEPS =    15

                               MULTIPLIER FOR DELT =     1.100

                            INITIAL TIME STEP SIZE =   82713.09    

 WEL PACKAGE STRESS PERIOD INFORMATION [BEFORE APPLICATION OF TABFILES]

 WELL NO.  LAYER   ROW   COL   STRESS RATE         
 --------------------------------------------------
      1      1      6      4  -1.0000000    
      2      1      6      5  -1.0000000    
      3      1      7      4  -1.0000000    
      4      1      7      5  -1.0000000    
      5      1      8      4  -1.0000000    
      6      1      8      5  -1.0000000    
      7      1      9      4  -1.0000000    
      8      1      9      5  -1.0000000    
      9      1     10      4  -1.0000000    
     10      1     10      5  -1.0000000    

10 WELLS

 REUSING NON-PARAMETER GHB CELLS FROM LAST STRESS PERIOD

      2 GHB CELLS

 REUSING STREAM SEGMENT DATA FROM LAST STRESS PERIOD



            AREAL INFILTRATION RATE
 READING ON UNIT   19 WITH FORMAT: (10F4.0)            

            1           2           3           4           5           6           7           8           9          10
 ........................................................................................................................
   1   0.2000E-07  0.4000E-07   0.000       0.000       0.000       0.000       0.000       0.000       0.000       0.000    
   2   0.4000E-07  0.2000E-07  0.4000E-07   0.000       0.000      0.1600E-06  0.1600E-06  0.1000E-06   0.000       0.000    
   3    0.000      0.1000E-06  0.2000E-07  0.2000E-07  0.1600E-06  0.1600E-06  0.1000E-06  0.1000E-06   0.000       0.000    
   4   0.1600E-06  0.1000E-06  0.2000E-07  0.2000E-07  0.2000E-07  0.2000E-07  0.2000E-07  0.2000E-07  0.4000E-07   0.000    
   5   0.1600E-06  0.1000E-06  0.2000E-07  0.2000E-07  0.2000E-07  0.2000E-07  0.2000E-07  0.2000E-07  0.2000E-07  0.2000E-07
   6   0.1600E-06  0.1000E-06  0.1000E-06  0.4000E-07  0.4000E-07  0.2000E-07  0.2000E-07  0.2000E-07  0.2000E-07  0.1000E-06
   7   0.1600E-06  0.1000E-06  0.1000E-06  0.4000E-07  0.4000E-07  0.2000E-07  0.2000E-07  0.4000E-07  0.4000E-07   0.000    
   8    0.000      0.1000E-06  0.1000E-06  0.4000E-07  0.4000E-07  0.2000E-07  0.2000E-07  0.4000E-07  0.1000E-06   0.000    
   9    0.000      0.1000E-06  0.1000E-06  0.4000E-07  0.4000E-07  0.2000E-07  0.2000E-07  0.4000E-07  0.1000E-06   0.000    
  10    0.000      0.1000E-06  0.1000E-06  0.4000E-07  0.4000E-07  0.2000E-07  0.2000E-07  0.4000E-07  0.1000E-06  0.1600E-06
  11    0.000      0.2000E-07  0.2000E-07  0.2000E-07  0.2000E-07  0.2000E-07  0.2000E-07  0.4000E-07  0.1000E-06   0.000    
  12   0.2000E-07  0.2000E-07  0.2000E-07  0.2000E-07  0.2000E-07  0.2000E-07  0.2000E-07  0.2000E-07  0.4000E-07   0.000    
  13   0.2000E-07  0.2000E-07  0.4000E-07  0.4000E-07  0.4000E-07  0.4000E-07  0.4000E-07  0.2000E-07  0.2000E-07   0.000    
  14    0.000      0.4000E-07  0.1000E-06  0.1000E-06  0.1000E-06  0.1000E-06  0.1000E-06  0.4000E-07  0.2000E-07   0.000    
  15    0.000       0.000      0.1600E-06  0.1600E-06  0.1600E-06  0.1600E-06   0.000       0.000       0.000       0.000    

USING ET RATE FROM PREVIOUS STRESS PERIOD. CURRENT PERIOD IS:       4

 USING ET EXTINCTION DEPTH FROM PREVIOUS STRESS PERIOD. CURRENT PERIOD IS:       4

 USING EXTINCTION WATER CONTENT FROM PREVIOUS STRESS PERIOD. CURRENT PERIOD IS:       4
 
 SOLVING FOR HEAD 

     9 ITERATIONS FOR TIME STEP   1 IN STRESS PERIOD    4

 MAXIMUM HEAD CHANGE FOR EACH ITERATION:

    HEAD CHANGE   HEAD CHANGE   HEAD CHANGE   HEAD CHANGE   HEAD CHANGE
  LAYER,ROW,COL LAYER,ROW,COL LAYER,ROW,COL LAYER,ROW,COL LAYER,ROW,COL
 ----------------------------------------------------------------------
     0.2138E-01    0.1174E-01    0.6449E-02    0.3544E-02    0.1956E-02
  (  1,  3,  5) (  1,  3,  5) (  1,  3,  5) (  1,  3,  5) (  1,  3,  5)
     0.1080E-02    0.5959E-03    0.3289E-03    0.1815E-03
  (  1,  3,  5) (  1,  3,  5) (  1,  3,  5) (  1,  3,  5)


 NO OUTPUT CONTROL FOR STRESS PERIOD      4   TIME STEP     1
 
 SOLVING FOR HEAD 
     9 ITERATIONS FOR TIME STEP   2 IN STRESS PERIOD    4

 MAXIMUM HEAD CHANGE FOR EACH ITERATION:

    HEAD CHANGE   HEAD CHANGE   HEAD CHANGE   HEAD CHANGE   HEAD CHANGE
  LAYER,ROW,COL LAYER,ROW,COL LAYER,ROW,COL LAYER,ROW,COL LAYER,ROW,COL
 ----------------------------------------------------------------------
     0.2290E-01    0.1257E-01    0.6904E-02    0.3791E-02    0.2081E-02
  (  1,  3,  5) (  1,  3,  5) (  1,  3,  5) (  1,  3,  5) (  1,  3,  5)
     0.1143E-02    0.6275E-03    0.3446E-03    0.1892E-03
  (  1,  3,  5) (  1,  3,  5) (  1,  3,  5) (  1,  3,  5)


 NO OUTPUT CONTROL FOR STRESS PERIOD      4   TIME STEP     2
 
 SOLVING FOR HEAD 
    10 ITERATIONS FOR TIME STEP   3 IN STRESS PERIOD    4

 MAXIMUM HEAD CHANGE FOR EACH ITERATION:

    HEAD CHANGE   HEAD CHANGE   HEAD CHANGE   HEAD CHANGE   HEAD CHANGE
  LAYER,ROW,COL LAYER,ROW,COL LAYER,ROW,COL LAYER,ROW,COL LAYER,ROW,COL
 ----------------------------------------------------------------------
     0.2424E-01    0.1331E-01    0.7308E-02    0.4012E-02    0.2202E-02
  (  1,  3,  5) (  1,  3,  5) (  1,  3,  5) (  1,  3,  5) (  1,  3,  5)
     0.1209E-02    0.6637E-03    0.3644E-03    0.2000E-03    0.1098E-03
  (  1,  3,  5) (  1,  3,  5) (  1,  3,  5) (  1,  3,  5) (  1,  3,  5)


 NO OUTPUT CONTROL FOR STRESS PERIOD      4   TIME STEP     3
 
 SOLVING FOR HEAD 
    10 ITERATIONS FOR TIME STEP   4 IN STRESS PERIOD    4

 MAXIMUM HEAD CHANGE FOR EACH ITERATION:

    HEAD CHANGE   HEAD CHANGE   HEAD CHANGE   HEAD CHANGE   HEAD CHANGE
  LAYER,ROW,COL LAYER,ROW,COL LAYER,ROW,COL LAYER,ROW,COL LAYER,ROW,COL
 ----------------------------------------------------------------------
     0.2568E-01    0.1415E-01    0.7790E-02    0.4291E-02    0.2363E-02
  (  1,  3,  5) (  1,  3,  5) (  1,  3,  5) (  1,  3,  5) (  1,  3,  5)
     0.1302E-02    0.7168E-03    0.3948E-03    0.2174E-03    0.1197E-03
  (  1,  3,  5) (  1,  3,  5) (  1,  3,  5) (  1,  3,  5) (  1,  3,  5)


 NO OUTPUT CONTROL FOR STRESS PERIOD      4   TIME STEP     4
 
 SOLVING FOR HEAD 
    10 ITERATIONS FOR TIME STEP   5 IN STRESS PERIOD    4

 MAXIMUM HEAD CHANGE FOR EACH ITERATION:

    HEAD CHANGE   HEAD CHANGE   HEAD CHANGE   HEAD CHANGE   HEAD CHANGE
  LAYER,ROW,COL LAYER,ROW,COL LAYER,ROW,COL LAYER,ROW,COL LAYER,ROW,COL
 ----------------------------------------------------------------------
     0.2734E-01    0.1501E-01    0.8245E-02    0.4528E-02    0.2486E-02
  (  1,  3,  5) (  1,  3,  5) (  1,  3,  5) (  1,  3,  5) (  1,  3,  5)
     0.1366E-02    0.7497E-03    0.4117E-03    0.2260E-03    0.1241E-03
  (  1,  3,  5) (  1,  3,  5) (  1,  3,  5) (  1,  3,  5) (  1,  3,  5)


 OUTPUT CONTROL FOR STRESS PERIOD      4   TIME STEP     5
    PRINT BUDGET
    SAVE BUDGET

           WELLS   PERIOD 4   STEP 5
WELL          1   LAYER          1   ROW          6   COL          4   RATE -1.0
WELL          2   LAYER          1   ROW          6   COL          5   RATE -1.0
WELL          3   LAYER          1   ROW          7   COL          4   RATE -1.0
WELL          4   LAYER          1   ROW          7   COL          5   RATE -1.0
WELL          5   LAYER          1   ROW          8   COL          4   RATE -1.0
WELL          6   LAYER          1   ROW          8   COL          5   RATE -1.0
WELL          7   LAYER          1   ROW          9   COL          4   RATE -1.0
WELL          8   LAYER          1   ROW          9   COL          5   RATE -1.0
WELL          9   LAYER          1   ROW         10   COL          4   RATE -1.0
WELL         10   LAYER          1   ROW         10   COL          5   RATE -1.0

  HEAD DEP BOUNDS   PERIOD    4   STEP   5
 BOUNDARY      1   LAYER   1   ROW    13   COL     1   RATE   -0.263006       COND    0.380000E-01
 BOUNDARY      2   LAYER   1   ROW    14   COL     9   RATE    0.208326       COND    0.380000E-01



 STREAM LISTING     PERIOD      4   STEP        5

 LAYER ROW COL. STREAM  RCH.  FLOW INTO     FLOW TO   FLOW OUT OF   OVRLND.     DIRECT     STREAM       STREAM     STREAM     STREAM   STREAMBED  STREAMBED  STREAMBED
                SEG.NO.  NO.  STRM. RCH.    AQUIFER    STRM. RCH.    RUNOFF     PRECIP       ET          HEAD       DEPTH      WIDTH   CONDCTNC.   GRADIENT  ELEVATION

   1    1    1     1     1    2.5000E+01  9.9953E-01   2.4000E+01  0.000E+00  0.000E+00  0.000E+00  1.09422E+03  1.173E+00  1.296E+01  5.833E-01  5.712E-01  1.093E+03
   1    2    2     1     2    2.4000E+01  3.0211E+00   2.0979E+01  0.000E+00  0.000E+00  0.000E+00  1.08920E+03  1.141E+00  1.255E+01  8.783E-01  1.147E+00  1.088E+03
   1    3    3     1     3    2.0979E+01  2.9114E+00   1.8068E+01  0.000E+00  0.000E+00  0.000E+00  1.08351E+03  1.092E+00  1.186E+01  7.114E-01  1.364E+00  1.082E+03
   1    3    4     1     4    1.8068E+01  2.4733E+00   1.5595E+01  0.000E+00  0.000E+00  0.000E+00  1.07845E+03  1.046E+00  1.101E+01  6.112E-01  1.349E+00  1.077E+03
   1    4    5     2     1    5.5947E+00  2.6658E+00   2.9289E+00  0.000E+00  0.000E+00  0.000E+00  1.07235E+03  4.177E-01  1.200E+01  7.800E-01  1.139E+00  1.072E+03
   1    5    6     2     2    2.9289E+00  1.9568E+00   9.7206E-01  0.000E+00  0.000E+00  0.000E+00  1.06677E+03  2.614E-01  1.200E+01  6.000E-01  1.087E+00  1.067E+03
   1    6    6     2     3    9.7206E-01  9.7206E-01   0.0000E+00  0.000E+00  0.000E+00  0.000E+00  1.06181E+03  1.936E-02  1.200E+01  6.000E-01  1.006E+00  1.062E+03
   1    7    6     2     4    0.0000E+00  0.0000E+00   0.0000E+00  0.000E+00  0.000E+00  0.000E+00  1.05708E+03  0.000E+00  1.200E+01  6.000E-01  1.000E+00  1.057E+03
   1    8    6     2     5    0.0000E+00  0.0000E+00   0.0000E+00  0.000E+00  0.000E+00  0.000E+00  1.05236E+03  0.000E+00  1.200E+01  6.000E-01  1.000E+00  1.052E+03
   1    3    5     3     1    1.0000E+01  2.8252E+00   7.1748E+00  0.000E+00  0.000E+00  0.000E+00  1.07555E+03  1.909E+00  9.636E+00  7.227E-01  1.955E+00  1.074E+03
   1    3    6     3     2    7.1748E+00  1.3828E+00   5.7920E+00  0.000E+00  0.000E+00  0.000E+00  1.07264E+03  1.727E+00  8.909E+00  6.682E-01  1.035E+00  1.071E+03
   1    3    7     3     3    5.7920E+00  6.5184E-01   5.1401E+00  0.000E+00  0.000E+00  0.000E+00  1.06987E+03  1.555E+00  8.218E+00  5.547E-01  5.875E-01  1.068E+03
   1    4    8     3     4    5.1401E+00  1.5810E+00   3.5591E+00  0.000E+00  0.000E+00  0.000E+00  1.06682E+03  1.364E+00  7.455E+00  6.709E-01  1.178E+00  1.065E+03
   1    5    8     3     5    3.5591E+00  1.5789E+00   1.9802E+00  0.000E+00  0.000E+00  0.000E+00  1.06362E+03  1.164E+00  6.655E+00  4.991E-01  1.582E+00  1.062E+03
   1    6    8     3     6    1.9802E+00  5.5980E-01   1.4204E+00  0.000E+00  0.000E+00  0.000E+00  1.06158E+03  1.036E+00  6.145E+00  1.844E-01  1.518E+00  1.061E+03
   1    5   10     4     1    1.0000E+01  9.0525E-01   9.0947E+00  0.000E+00  0.000E+00  0.000E+00  1.07835E+03  6.210E-01  1.000E+01  2.500E-01  1.207E+00  1.078E+03
   1    5    9     4     2    9.0947E+00  1.7835E+00   7.3113E+00  0.000E+00  0.000E+00  0.000E+00  1.07148E+03  5.670E-01  1.000E+01  5.000E-01  1.189E+00  1.071E+03
   1    6    8     4     3    7.3113E+00  1.2257E+00   6.0855E+00  0.000E+00  0.000E+00  0.000E+00  1.06368E+03  5.021E-01  1.000E+01  3.500E-01  1.167E+00  1.063E+03
   1    6    8     5     1    7.5059E+00  1.0811E+00   6.4248E+00  0.000E+00  0.000E+00  0.000E+00  1.05859E+03  5.918E-01  1.218E+01  4.871E-01  7.399E-01  1.058E+03
   1    7    7     5     2    6.4248E+00  1.8708E+00   4.5541E+00  0.000E+00  0.000E+00  0.000E+00  1.05404E+03  5.444E-01  1.056E+01  5.278E-01  1.181E+00  1.054E+03
   1    8    7     5     3    4.5541E+00  1.0689E+00   3.4851E+00  0.000E+00  0.000E+00  0.000E+00  1.04974E+03  4.882E-01  8.756E+00  3.064E-01  1.163E+00  1.049E+03
   1    8    6     5     4    3.4851E+00  6.5322E-01   2.8319E+00  0.000E+00  0.000E+00  0.000E+00  1.04670E+03  4.487E-01  7.576E+00  1.894E-01  1.150E+00  1.046E+03
   1    9    6     6     1    2.8319E+00  1.9539E+00   8.7803E-01  0.000E+00  0.000E+00  0.000E+00  1.04298E+03  2.564E-01  1.200E+01  6.000E-01  1.085E+00  1.043E+03
   1   10    7     6     2    8.7803E-01  8.7803E-01   0.0000E+00  0.000E+00  0.000E+00  0.000E+00  1.03822E+03  3.683E-02  1.200E+01  6.000E-01  1.012E+00  1.038E+03
   1   11    7     6     3    0.0000E+00  0.0000E+00   0.0000E+00  0.000E+00  0.000E+00  0.000E+00  1.03364E+03  0.000E+00  1.200E+01  6.000E-01  1.000E+00  1.034E+03
   1   12    7     6     4    0.0000E+00  0.0000E+00   0.0000E+00  0.000E+00  0.000E+00  0.000E+00  1.02909E+03  0.000E+00  1.200E+01  6.000E-01  3.417E-01  1.029E+03
   1   13    7     6     5    0.0000E+00 -7.7245E-01   7.7245E-01  0.000E+00  0.000E+00  0.000E+00  1.02601E+03  1.000E-01  1.200E+01  2.400E-01 -1.073E+00  1.026E+03
   1   14    9     7     1    1.5000E+02  1.9516E+00   1.4805E+02  0.000E+00  0.000E+00  0.000E+00  1.03987E+03  2.286E+00  5.529E+01  5.592E+00  1.163E-01  1.038E+03
   1   13    8     7     2    1.4805E+02  2.9626E+00   1.4509E+02  0.000E+00  0.000E+00  0.000E+00  1.03477E+03  2.273E+00  5.523E+01  6.144E+00  1.607E-01  1.032E+03
   1   13    7     7     3    1.4509E+02  2.5104E+00   1.4258E+02  0.000E+00  0.000E+00  0.000E+00  1.02968E+03  2.258E+00  5.516E+01  5.579E+00  1.500E-01  1.027E+03
   1   13    6     8     1    1.4335E+02  7.5771E-01   1.4259E+02  0.000E+00  0.000E+00  0.000E+00  1.02464E+03  2.767E+00  4.012E+01  4.088E+00  6.179E-02  1.022E+03
   1   13    5     8     2    1.4259E+02 -2.2152E+00   1.4481E+02  0.000E+00  0.000E+00  0.000E+00  1.01840E+03  2.772E+00  4.019E+01  4.096E+00 -1.803E-01  1.016E+03
   1   13    4     8     3    1.4481E+02 -4.0466E+00   1.4885E+02  0.000E+00  0.000E+00  0.000E+00  1.01217E+03  2.794E+00  4.052E+01  4.129E+00 -3.267E-01  1.009E+03
   1   13    3     8     4    1.4885E+02 -4.3047E+00   1.5316E+02  0.000E+00  0.000E+00  0.000E+00  1.00595E+03  2.824E+00  4.095E+01  4.173E+00 -3.439E-01  1.003E+03
   1   13    2     8     5    1.5316E+02 -2.1000E+00   1.5526E+02  0.000E+00  0.000E+00  0.000E+00  9.99721E+02  2.846E+00  4.127E+01  4.206E+00 -1.664E-01  9.969E+02
   1   13    1     8     6    1.5526E+02 -4.8371E-01   1.5574E+02  0.000E+00  0.000E+00  0.000E+00  9.94730E+02  2.855E+00  4.140E+01  2.531E+00 -6.370E-02  9.919E+02



 UBDSV3 SAVING "           GW ET" ON UNIT 61 AT TIME STEP 5, STRESS PERIOD 4
 UBDSV3 SAVING "    UZF RECHARGE" ON UNIT 61 AT TIME STEP 5, STRESS PERIOD 4
 UBDSV3 SAVING " SURFACE LEAKAGE" ON UNIT 61 AT TIME STEP 5, STRESS PERIOD 4
 UBDSV3 SAVING "       HORT+DUNN" ON UNIT 61 AT TIME STEP 5, STRESS PERIOD 4
 UBDSV3 SAVING "  STORAGE CHANGE" ON UNIT 61 AT TIME STEP 5, STRESS PERIOD 4


UNSATURATED ZONE PACKAGE VOLUMETRIC BUDGET FOR  TIME STEP     5 STRESS PERIOD    4
  ------------------------------------------------------------------------------



     CUMULATIVE VOLUMES      L**3       RATES FOR THIS TIME STEP      L**3/T
     ------------------                 ------------------------

           IN:                                      IN:
           ---                                      ---
        INFILTRATION =     5.0876640E+8          INFILTRATION =            169.5

          OUT:                                     OUT:
          ----                                     ----
              UZF ET =     6.9333908E+8                UZF ET =        104.40803
        UZF RECHARGE =     9.3995115E+7          UZF RECHARGE =       18.1495597

            IN - OUT =    -2.7856780E+8              IN - OUT =       46.9424151

          STORAGE:                                 STORAGE:
          --------                                 --------
      STORAGE CHANGE =    -2.7846235E+8        STORAGE CHANGE =       46.9654704

 PERCENT DISCREPANCY =          -0.00     PERCENT DISCREPANCY =          -0.01




 PERCENT DISCREPANCY IS DIFFERENCE BETWEEN IN-OUT MINUS CHANGE IN STORAGE
 DIVIDED BY THE AVERAGE OF IN AND OUT TIMES 100






  -------------------------------------------------------------------------------------
  VOLUMETRIC BUDGET FOR ENTIRE MODEL AT END OF TIME STEP    5 IN STRESS PERIOD      4
  -------------------------------------------------------------------------------------

     CUMULATIVE VOLUMES      L**3       RATES FOR THIS TIME STEP      L**3/T
     ------------------                 ------------------------

           IN:                                      IN:
           ---                                      ---
             STORAGE =      408063.0191               STORAGE =           0.1879
       CONSTANT HEAD =           0.0000         CONSTANT HEAD =           0.0000
               WELLS =           0.0000                 WELLS =           0.0000
     HEAD DEP BOUNDS =     1753239.8230       HEAD DEP BOUNDS =           0.2083
      STREAM LEAKAGE =   366364197.3890        STREAM LEAKAGE =          43.1823
        UZF RECHARGE =    93995115.1604          UZF RECHARGE =          18.1496
               GW ET =           0.0000                 GW ET =           0.0000
     SURFACE LEAKAGE =           0.0000       SURFACE LEAKAGE =           0.0000

            TOTAL IN =   462520615.3915              TOTAL IN =          61.7281

          OUT:                                     OUT:
          ----                                     ----
             STORAGE =    81917097.9331               STORAGE =          22.7704
       CONSTANT HEAD =           0.0000         CONSTANT HEAD =           0.0000
               WELLS =   136449716.5926                 WELLS =          10.0000
     HEAD DEP BOUNDS =     2198757.2850       HEAD DEP BOUNDS =           0.2630
      STREAM LEAKAGE =   107521565.3148        STREAM LEAKAGE =          13.9226
        UZF RECHARGE =           0.0000          UZF RECHARGE =           0.0000
               GW ET =   134382621.1576                 GW ET =          14.7679
     SURFACE LEAKAGE =           0.0000       SURFACE LEAKAGE =           0.0000

           TOTAL OUT =   462469758.2832             TOTAL OUT =          61.7239

            IN - OUT =       50857.1083              IN - OUT =       4.2156E-03

 PERCENT DISCREPANCY =           0.01     PERCENT DISCREPANCY =           0.01


          TIME SUMMARY AT END OF TIME STEP     5 IN STRESS PERIOD      4
                    SECONDS     MINUTES      HOURS       DAYS        YEARS
                    -----------------------------------------------------------
   TIME STEP LENGTH 1.21100E+05  2018.3      33.639      1.4016     3.83743E-03
 STRESS PERIOD TIME 5.04972E+05  8416.2      140.27      5.8446     1.60016E-02
         TOTAL TIME 8.38897E+06 1.39816E+05  2330.3      97.095     0.26583    
 
 
 SOLVING FOR HEAD 
     9 ITERATIONS FOR TIME STEP   6 IN STRESS PERIOD    4

 MAXIMUM HEAD CHANGE FOR EACH ITERATION:

    HEAD CHANGE   HEAD CHANGE   HEAD CHANGE   HEAD CHANGE   HEAD CHANGE
  LAYER,ROW,COL LAYER,ROW,COL LAYER,ROW,COL LAYER,ROW,COL LAYER,ROW,COL
 ----------------------------------------------------------------------
     0.2864E-01    0.1574E-01    0.7960E-02    0.4277E-02    0.2297E-02
  (  1,  3,  5) (  1,  3,  5) (  1,  3,  5) (  1,  3,  5) (  1,  3,  5)
     0.1235E-02    0.6631E-03    0.3563E-03    0.1914E-03
  (  1,  3,  5) (  1,  3,  5) (  1,  3,  5) (  1,  3,  5)


 NO OUTPUT CONTROL FOR STRESS PERIOD      4   TIME STEP     6
 
 SOLVING FOR HEAD 
    14 ITERATIONS FOR TIME STEP   7 IN STRESS PERIOD    4

 MAXIMUM HEAD CHANGE FOR EACH ITERATION:

    HEAD CHANGE   HEAD CHANGE   HEAD CHANGE   HEAD CHANGE   HEAD CHANGE
  LAYER,ROW,COL LAYER,ROW,COL LAYER,ROW,COL LAYER,ROW,COL LAYER,ROW,COL
 ----------------------------------------------------------------------
     0.7038E-01    0.4446E-01    0.2807E-01    0.1772E-01    0.1118E-01
  (  1,  3,  6) (  1,  3,  6) (  1,  3,  6) (  1,  3,  6) (  1,  3,  6)
     0.7055E-02    0.4449E-02    0.2806E-02    0.1769E-02    0.1116E-02
  (  1,  3,  6) (  1,  3,  6) (  1,  3,  6) (  1,  3,  6) (  1,  3,  6)
     0.7034E-03    0.4434E-03    0.2795E-03    0.1761E-03
  (  1,  3,  6) (  1,  3,  6) (  1,  3,  6) (  1,  3,  6)


 NO OUTPUT CONTROL FOR STRESS PERIOD      4   TIME STEP     7
 
 SOLVING FOR HEAD 
    15 ITERATIONS FOR TIME STEP   8 IN STRESS PERIOD    4

 MAXIMUM HEAD CHANGE FOR EACH ITERATION:

    HEAD CHANGE   HEAD CHANGE   HEAD CHANGE   HEAD CHANGE   HEAD CHANGE
  LAYER,ROW,COL LAYER,ROW,COL LAYER,ROW,COL LAYER,ROW,COL LAYER,ROW,COL
 ----------------------------------------------------------------------
     0.1038        0.6482E-01    0.4053E-01    0.2567E-01    0.1626E-01
  (  1,  3,  5) (  1,  3,  5) (  1,  3,  6) (  1,  3,  6) (  1,  3,  6)
     0.1029E-01    0.6512E-02    0.4120E-02    0.2606E-02    0.1648E-02
  (  1,  3,  6) (  1,  3,  6) (  1,  3,  6) (  1,  3,  6) (  1,  3,  6)
     0.1042E-02    0.6589E-03    0.4165E-03    0.2633E-03    0.1664E-03
  (  1,  3,  6) (  1,  3,  6) (  1,  3,  6) (  1,  3,  6) (  1,  3,  6)


 NO OUTPUT CONTROL FOR STRESS PERIOD      4   TIME STEP     8
 
 SOLVING FOR HEAD 
    15 ITERATIONS FOR TIME STEP   9 IN STRESS PERIOD    4

 MAXIMUM HEAD CHANGE FOR EACH ITERATION:

    HEAD CHANGE   HEAD CHANGE   HEAD CHANGE   HEAD CHANGE   HEAD CHANGE
  LAYER,ROW,COL LAYER,ROW,COL LAYER,ROW,COL LAYER,ROW,COL LAYER,ROW,COL
 ----------------------------------------------------------------------
     0.1153        0.7140E-01    0.4421E-01    0.2740E-01    0.1697E-01
  (  1,  3,  5) (  1,  3,  5) (  1,  3,  5) (  1,  3,  5) (  1,  3,  5)
     0.1052E-01    0.6515E-02    0.4039E-02    0.2502E-02    0.1551E-02
  (  1,  3,  5) (  1,  3,  5) (  1,  3,  5) (  1,  3,  5) (  1,  3,  5)
     0.9616E-03    0.5960E-03    0.3693E-03    0.2291E-03    0.1433E-03
  (  1,  3,  5) (  1,  3,  5) (  1,  3,  5) (  1,  3,  5) (  1,  3,  6)


 NO OUTPUT CONTROL FOR STRESS PERIOD      4   TIME STEP     9
 
 SOLVING FOR HEAD 
    15 ITERATIONS FOR TIME STEP  10 IN STRESS PERIOD    4

 MAXIMUM HEAD CHANGE FOR EACH ITERATION:

    HEAD CHANGE   HEAD CHANGE   HEAD CHANGE   HEAD CHANGE   HEAD CHANGE
  LAYER,ROW,COL LAYER,ROW,COL LAYER,ROW,COL LAYER,ROW,COL LAYER,ROW,COL
 ----------------------------------------------------------------------
     0.1040        0.6424E-01    0.3967E-01    0.2452E-01    0.1514E-01
  (  1,  3,  5) (  1,  3,  5) (  1,  3,  5) (  1,  3,  5) (  1,  3,  5)
     0.9365E-02    0.5784E-02    0.3577E-02    0.2209E-02    0.1367E-02
  (  1,  3,  5) (  1,  3,  5) (  1,  3,  5) (  1,  3,  5) (  1,  3,  5)
     0.8449E-03    0.5263E-03    0.3305E-03    0.2075E-03    0.1303E-03
  (  1,  3,  5) (  1,  3,  6) (  1,  3,  6) (  1,  3,  6) (  1,  3,  6)


 OUTPUT CONTROL FOR STRESS PERIOD      4   TIME STEP    10
    PRINT BUDGET
    SAVE BUDGET

           WELLS   PERIOD 4   STEP 10
WELL          1   LAYER          1   ROW          6   COL          4   RATE -1.0
WELL          2   LAYER          1   ROW          6   COL          5   RATE -1.0
WELL          3   LAYER          1   ROW          7   COL          4   RATE -1.0
WELL          4   LAYER          1   ROW          7   COL          5   RATE -1.0
WELL          5   LAYER          1   ROW          8   COL          4   RATE -1.0
WELL          6   LAYER          1   ROW          8   COL          5   RATE -1.0
WELL          7   LAYER          1   ROW          9   COL          4   RATE -1.0
WELL          8   LAYER          1   ROW          9   COL          5   RATE -1.0
WELL          9   LAYER          1   ROW         10   COL          4   RATE -1.0
WELL         10   LAYER          1   ROW         10   COL          5   RATE -1.0

  HEAD DEP BOUNDS   PERIOD    4   STEP  10
 BOUNDARY      1   LAYER   1   ROW    13   COL     1   RATE   -0.263119       COND    0.380000E-01
 BOUNDARY      2   LAYER   1   ROW    14   COL     9   RATE    0.208318       COND    0.380000E-01



 STREAM LISTING     PERIOD      4   STEP       10

 LAYER ROW COL. STREAM  RCH.  FLOW INTO     FLOW TO   FLOW OUT OF   OVRLND.     DIRECT     STREAM       STREAM     STREAM     STREAM   STREAMBED  STREAMBED  STREAMBED
                SEG.NO.  NO.  STRM. RCH.    AQUIFER    STRM. RCH.    RUNOFF     PRECIP       ET          HEAD       DEPTH      WIDTH   CONDCTNC.   GRADIENT  ELEVATION

   1    1    1     1     1    2.5000E+01  9.9433E-01   2.4006E+01  0.000E+00  0.000E+00  0.000E+00  1.09422E+03  1.173E+00  1.296E+01  5.833E-01  5.682E-01  1.093E+03
   1    2    2     1     2    2.4006E+01  3.0140E+00   2.0992E+01  0.000E+00  0.000E+00  0.000E+00  1.08920E+03  1.142E+00  1.255E+01  8.784E-01  1.144E+00  1.088E+03
   1    3    3     1     3    2.0992E+01  2.9124E+00   1.8079E+01  0.000E+00  0.000E+00  0.000E+00  1.08351E+03  1.093E+00  1.186E+01  7.116E-01  1.364E+00  1.082E+03
   1    3    4     1     4    1.8079E+01  2.4742E+00   1.5605E+01  0.000E+00  0.000E+00  0.000E+00  1.07845E+03  1.047E+00  1.102E+01  6.114E-01  1.349E+00  1.077E+03
   1    4    5     2     1    5.6051E+00  2.6663E+00   2.9388E+00  0.000E+00  0.000E+00  0.000E+00  1.07235E+03  4.183E-01  1.200E+01  7.800E-01  1.139E+00  1.072E+03
   1    5    6     2     2    2.9388E+00  1.9573E+00   9.8148E-01  0.000E+00  0.000E+00  0.000E+00  1.06677E+03  2.621E-01  1.200E+01  6.000E-01  1.087E+00  1.067E+03
   1    6    6     2     3    9.8148E-01  9.8148E-01   0.0000E+00  0.000E+00  0.000E+00  0.000E+00  1.06181E+03  1.947E-02  1.200E+01  6.000E-01  1.006E+00  1.062E+03
   1    7    6     2     4    0.0000E+00  0.0000E+00   0.0000E+00  0.000E+00  0.000E+00  0.000E+00  1.05708E+03  0.000E+00  1.200E+01  6.000E-01  1.000E+00  1.057E+03
   1    8    6     2     5    0.0000E+00  0.0000E+00   0.0000E+00  0.000E+00  0.000E+00  0.000E+00  1.05236E+03  0.000E+00  1.200E+01  6.000E-01  1.000E+00  1.052E+03
   1    3    5     3     1    1.0000E+01  2.1436E+00   7.8564E+00  0.000E+00  0.000E+00  0.000E+00  1.07555E+03  1.909E+00  9.636E+00  7.227E-01  1.483E+00  1.074E+03
   1    3    6     3     2    7.8564E+00  7.2684E-01   7.1295E+00  0.000E+00  0.000E+00  0.000E+00  1.07264E+03  1.727E+00  8.909E+00  6.682E-01  5.439E-01  1.071E+03
   1    3    7     3     3    7.1295E+00  3.2479E-01   6.8047E+00  0.000E+00  0.000E+00  0.000E+00  1.06987E+03  1.555E+00  8.218E+00  5.547E-01  2.927E-01  1.068E+03
   1    4    8     3     4    6.8047E+00  1.5873E+00   5.2174E+00  0.000E+00  0.000E+00  0.000E+00  1.06682E+03  1.364E+00  7.455E+00  6.709E-01  1.183E+00  1.065E+03
   1    5    8     3     5    5.2174E+00  1.5789E+00   3.6385E+00  0.000E+00  0.000E+00  0.000E+00  1.06362E+03  1.164E+00  6.655E+00  4.991E-01  1.582E+00  1.062E+03
   1    6    8     3     6    3.6385E+00  5.5980E-01   3.0787E+00  0.000E+00  0.000E+00  0.000E+00  1.06158E+03  1.036E+00  6.145E+00  1.844E-01  1.518E+00  1.061E+03
   1    5   10     4     1    1.0000E+01  9.0525E-01   9.0947E+00  0.000E+00  0.000E+00  0.000E+00  1.07835E+03  6.210E-01  1.000E+01  2.500E-01  1.207E+00  1.078E+03
   1    5    9     4     2    9.0947E+00  1.7835E+00   7.3113E+00  0.000E+00  0.000E+00  0.000E+00  1.07148E+03  5.670E-01  1.000E+01  5.000E-01  1.189E+00  1.071E+03
   1    6    8     4     3    7.3113E+00  1.2257E+00   6.0855E+00  0.000E+00  0.000E+00  0.000E+00  1.06368E+03  5.021E-01  1.000E+01  3.500E-01  1.167E+00  1.063E+03
   1    6    8     5     1    9.1642E+00  1.2261E+00   7.9382E+00  0.000E+00  0.000E+00  0.000E+00  1.05864E+03  6.358E-01  1.377E+01  5.509E-01  7.419E-01  1.058E+03
   1    7    7     5     2    7.9382E+00  2.1642E+00   5.7739E+00  0.000E+00  0.000E+00  0.000E+00  1.05409E+03  5.885E-01  1.206E+01  6.031E-01  1.196E+00  1.054E+03
   1    8    7     5     3    5.7739E+00  1.2554E+00   4.5185E+00  0.000E+00  0.000E+00  0.000E+00  1.04978E+03  5.323E-01  1.015E+01  3.554E-01  1.177E+00  1.049E+03
   1    8    6     5     4    4.5185E+00  7.7706E-01   3.7414E+00  0.000E+00  0.000E+00  0.000E+00  1.04674E+03  4.928E-01  8.899E+00  2.225E-01  1.164E+00  1.046E+03
   1    9    6     6     1    3.7414E+00  1.9946E+00   1.7468E+00  0.000E+00  0.000E+00  0.000E+00  1.04305E+03  3.243E-01  1.200E+01  6.000E-01  1.108E+00  1.043E+03
   1   10    7     6     2    1.7468E+00  1.7468E+00   0.0000E+00  0.000E+00  0.000E+00  0.000E+00  1.03824E+03  5.565E-02  1.200E+01  6.000E-01  1.019E+00  1.038E+03
   1   11    7     6     3    0.0000E+00  0.0000E+00   0.0000E+00  0.000E+00  0.000E+00  0.000E+00  1.03364E+03  0.000E+00  1.200E+01  6.000E-01  1.000E+00  1.034E+03
   1   12    7     6     4    0.0000E+00  0.0000E+00   0.0000E+00  0.000E+00  0.000E+00  0.000E+00  1.02909E+03  0.000E+00  1.200E+01  6.000E-01  3.349E-01  1.029E+03
   1   13    7     6     5    0.0000E+00 -7.7783E-01   7.7783E-01  0.000E+00  0.000E+00  0.000E+00  1.02601E+03  1.004E-01  1.200E+01  2.400E-01 -1.080E+00  1.026E+03
   1   14    9     7     1    1.5000E+02  1.9504E+00   1.4805E+02  0.000E+00  0.000E+00  0.000E+00  1.03987E+03  2.286E+00  5.529E+01  5.592E+00  1.163E-01  1.038E+03
   1   13    8     7     2    1.4805E+02  2.9601E+00   1.4509E+02  0.000E+00  0.000E+00  0.000E+00  1.03477E+03  2.273E+00  5.523E+01  6.144E+00  1.606E-01  1.032E+03
   1   13    7     7     3    1.4509E+02  2.3852E+00   1.4270E+02  0.000E+00  0.000E+00  0.000E+00  1.02968E+03  2.259E+00  5.516E+01  5.579E+00  1.425E-01  1.027E+03
   1   13    6     8     1    1.4348E+02  6.2247E-01   1.4286E+02  0.000E+00  0.000E+00  0.000E+00  1.02464E+03  2.768E+00  4.014E+01  4.090E+00  5.073E-02  1.022E+03
   1   13    5     8     2    1.4286E+02 -2.4727E+00   1.4533E+02  0.000E+00  0.000E+00  0.000E+00  1.01840E+03  2.775E+00  4.023E+01  4.100E+00 -2.010E-01  1.016E+03
   1   13    4     8     3    1.4533E+02 -4.2605E+00   1.4959E+02  0.000E+00  0.000E+00  0.000E+00  1.01217E+03  2.799E+00  4.058E+01  4.136E+00 -3.434E-01  1.009E+03
   1   13    3     8     4    1.4959E+02 -4.5443E+00   1.5414E+02  0.000E+00  0.000E+00  0.000E+00  1.00595E+03  2.830E+00  4.103E+01  4.181E+00 -3.623E-01  1.003E+03
   1   13    2     8     5    1.5414E+02 -2.1021E+00   1.5624E+02  0.000E+00  0.000E+00  0.000E+00  9.99728E+02  2.853E+00  4.137E+01  4.216E+00 -1.662E-01  9.969E+02
   1   13    1     8     6    1.5624E+02 -4.7529E-01   1.5671E+02  0.000E+00  0.000E+00  0.000E+00  9.94737E+02  2.862E+00  4.150E+01  2.537E+00 -6.244E-02  9.919E+02



 UBDSV3 SAVING "           GW ET" ON UNIT 61 AT TIME STEP 10, STRESS PERIOD 4
 UBDSV3 SAVING "    UZF RECHARGE" ON UNIT 61 AT TIME STEP 10, STRESS PERIOD 4
 UBDSV3 SAVING " SURFACE LEAKAGE" ON UNIT 61 AT TIME STEP 10, STRESS PERIOD 4
 UBDSV3 SAVING "       HORT+DUNN" ON UNIT 61 AT TIME STEP 10, STRESS PERIOD 4
 UBDSV3 SAVING "  STORAGE CHANGE" ON UNIT 61 AT TIME STEP 10, STRESS PERIOD 4


UNSATURATED ZONE PACKAGE VOLUMETRIC BUDGET FOR  TIME STEP    10 STRESS PERIOD    4
  ------------------------------------------------------------------------------



     CUMULATIVE VOLUMES      L**3       RATES FOR THIS TIME STEP      L**3/T
     ------------------                 ------------------------

           IN:                                      IN:
           ---                                      ---
        INFILTRATION =     6.4661429E+8          INFILTRATION =            169.5

          OUT:                                     OUT:
          ----                                     ----
              UZF ET =     7.7831654E+8                UZF ET =        104.49397
        UZF RECHARGE =     1.1455378E+8          UZF RECHARGE =       27.5015116

            IN - OUT =    -2.4625603E+8              IN - OUT =       37.5045162

          STORAGE:                                 STORAGE:
          --------                                 --------
      STORAGE CHANGE =    -2.4610996E+8        STORAGE CHANGE =       37.5611839

 PERCENT DISCREPANCY =          -0.00     PERCENT DISCREPANCY =          -0.03




 PERCENT DISCREPANCY IS DIFFERENCE BETWEEN IN-OUT MINUS CHANGE IN STORAGE
 DIVIDED BY THE AVERAGE OF IN AND OUT TIMES 100






  -------------------------------------------------------------------------------------
  VOLUMETRIC BUDGET FOR ENTIRE MODEL AT END OF TIME STEP   10 IN STRESS PERIOD      4
  -------------------------------------------------------------------------------------

     CUMULATIVE VOLUMES      L**3       RATES FOR THIS TIME STEP      L**3/T
     ------------------                 ------------------------

           IN:                                      IN:
           ---                                      ---
             STORAGE =      540566.7050               STORAGE =           0.1439
       CONSTANT HEAD =           0.0000         CONSTANT HEAD =           0.0000
               WELLS =           0.0000                 WELLS =           0.0000
     HEAD DEP BOUNDS =     1922659.1493       HEAD DEP BOUNDS =           0.2083
      STREAM LEAKAGE =   401367526.4924        STREAM LEAKAGE =          42.9181
        UZF RECHARGE =   114553775.2047          UZF RECHARGE =          27.5015
               GW ET =           0.0000                 GW ET =           0.0000
     SURFACE LEAKAGE =           0.0000       SURFACE LEAKAGE =           0.0000

            TOTAL IN =   518384527.5514              TOTAL IN =          70.7719

          OUT:                                     OUT:
          ----                                     ----
             STORAGE =   105567598.9221               STORAGE =          30.7880
       CONSTANT HEAD =           0.0000         CONSTANT HEAD =           0.0000
               WELLS =   144582335.6622                 WELLS =          10.0000
     HEAD DEP BOUNDS =     2412702.5623       HEAD DEP BOUNDS =           0.2631
      STREAM LEAKAGE =   119241915.6548        STREAM LEAKAGE =          14.6327
        UZF RECHARGE =           0.0000          UZF RECHARGE =           0.0000
               GW ET =   146525397.2096                 GW ET =          15.0846
     SURFACE LEAKAGE =           0.0000       SURFACE LEAKAGE =           0.0000

           TOTAL OUT =   518329950.0110             TOTAL OUT =          70.7684

            IN - OUT =       54577.5404              IN - OUT =       3.4633E-03

 PERCENT DISCREPANCY =           0.01     PERCENT DISCREPANCY =           0.00


          TIME SUMMARY AT END OF TIME STEP    10 IN STRESS PERIOD      4
                    SECONDS     MINUTES      HOURS       DAYS        YEARS
                    -----------------------------------------------------------
   TIME STEP LENGTH 1.95033E+05  3250.6      54.176      2.2573     6.18023E-03
 STRESS PERIOD TIME 1.31823E+06  21971.      366.18      15.257     4.17723E-02
         TOTAL TIME 9.20223E+06 1.53371E+05  2556.2      106.51     0.29160    
 
 
 SOLVING FOR HEAD 
    14 ITERATIONS FOR TIME STEP  11 IN STRESS PERIOD    4

 MAXIMUM HEAD CHANGE FOR EACH ITERATION:

    HEAD CHANGE   HEAD CHANGE   HEAD CHANGE   HEAD CHANGE   HEAD CHANGE
  LAYER,ROW,COL LAYER,ROW,COL LAYER,ROW,COL LAYER,ROW,COL LAYER,ROW,COL
 ----------------------------------------------------------------------
     0.9247E-01    0.5668E-01    0.3472E-01    0.2130E-01    0.1305E-01
  (  1,  3,  5) (  1,  3,  5) (  1,  3,  5) (  1,  3,  5) (  1,  3,  5)
     0.8008E-02    0.4908E-02    0.3058E-02    0.1909E-02    0.1191E-02
  (  1,  3,  5) (  1,  3,  5) (  1,  3,  6) (  1,  3,  6) (  1,  3,  6)
     0.7433E-03    0.4636E-03    0.2891E-03    0.1802E-03
  (  1,  3,  6) (  1,  3,  6) (  1,  3,  6) (  1,  3,  6)


 NO OUTPUT CONTROL FOR STRESS PERIOD      4   TIME STEP    11
 
 SOLVING FOR HEAD 
    14 ITERATIONS FOR TIME STEP  12 IN STRESS PERIOD    4

 MAXIMUM HEAD CHANGE FOR EACH ITERATION:

    HEAD CHANGE   HEAD CHANGE   HEAD CHANGE   HEAD CHANGE   HEAD CHANGE
  LAYER,ROW,COL LAYER,ROW,COL LAYER,ROW,COL LAYER,ROW,COL LAYER,ROW,COL
 ----------------------------------------------------------------------
     0.8264E-01    0.5057E-01    0.3092E-01    0.1894E-01    0.1158E-01
  (  1,  3,  5) (  1,  3,  5) (  1,  3,  5) (  1,  3,  5) (  1,  3,  5)
     0.7157E-02    0.4455E-02    0.2772E-02    0.1724E-02    0.1072E-02
  (  1,  3,  6) (  1,  3,  6) (  1,  3,  6) (  1,  3,  6) (  1,  3,  6)
     0.6665E-03    0.4141E-03    0.2573E-03    0.1598E-03
  (  1,  3,  6) (  1,  3,  6) (  1,  3,  6) (  1,  3,  6)


 NO OUTPUT CONTROL FOR STRESS PERIOD      4   TIME STEP    12
 
 SOLVING FOR HEAD 
    14 ITERATIONS FOR TIME STEP  13 IN STRESS PERIOD    4

 MAXIMUM HEAD CHANGE FOR EACH ITERATION:

    HEAD CHANGE   HEAD CHANGE   HEAD CHANGE   HEAD CHANGE   HEAD CHANGE
  LAYER,ROW,COL LAYER,ROW,COL LAYER,ROW,COL LAYER,ROW,COL LAYER,ROW,COL
 ----------------------------------------------------------------------
     0.6956E-01    0.4220E-01    0.2558E-01    0.1575E-01    0.9745E-02
  (  1,  3,  5) (  1,  3,  5) (  1,  3,  5) (  1,  3,  6) (  1,  3,  6)
     0.6024E-02    0.3722E-02    0.2298E-02    0.1419E-02    0.8754E-03
  (  1,  3,  6) (  1,  3,  6) (  1,  3,  6) (  1,  3,  6) (  1,  3,  6)
     0.5401E-03    0.3330E-03    0.2053E-03    0.1265E-03
  (  1,  3,  6) (  1,  3,  6) (  1,  3,  6) (  1,  3,  6)


 NO OUTPUT CONTROL FOR STRESS PERIOD      4   TIME STEP    13
 
 SOLVING FOR HEAD 
    13 ITERATIONS FOR TIME STEP  14 IN STRESS PERIOD    4

 MAXIMUM HEAD CHANGE FOR EACH ITERATION:

    HEAD CHANGE   HEAD CHANGE   HEAD CHANGE   HEAD CHANGE   HEAD CHANGE
  LAYER,ROW,COL LAYER,ROW,COL LAYER,ROW,COL LAYER,ROW,COL LAYER,ROW,COL
 ----------------------------------------------------------------------
     0.5922E-01    0.3647E-01    0.2243E-01    0.1383E-01    0.8524E-02
  (  1,  3,  6) (  1,  3,  6) (  1,  3,  6) (  1,  3,  6) (  1,  3,  6)
     0.5249E-02    0.3231E-02    0.1987E-02    0.1222E-02    0.7509E-03
  (  1,  3,  6) (  1,  3,  6) (  1,  3,  6) (  1,  3,  6) (  1,  3,  6)
     0.4614E-03    0.2833E-03    0.1739E-03
  (  1,  3,  6) (  1,  3,  6) (  1,  3,  6)


 NO OUTPUT CONTROL FOR STRESS PERIOD      4   TIME STEP    14
 
 SOLVING FOR HEAD 
    13 ITERATIONS FOR TIME STEP  15 IN STRESS PERIOD    4

 MAXIMUM HEAD CHANGE FOR EACH ITERATION:

    HEAD CHANGE   HEAD CHANGE   HEAD CHANGE   HEAD CHANGE   HEAD CHANGE
  LAYER,ROW,COL LAYER,ROW,COL LAYER,ROW,COL LAYER,ROW,COL LAYER,ROW,COL
 ----------------------------------------------------------------------
     0.5328E-01    0.3196E-01    0.1958E-01    0.1198E-01    0.7325E-02
  (  1,  3,  7) (  1,  3,  6) (  1,  3,  6) (  1,  3,  6) (  1,  3,  6)
     0.4474E-02    0.2731E-02    0.1666E-02    0.1016E-02    0.6189E-03
  (  1,  3,  6) (  1,  3,  6) (  1,  3,  6) (  1,  3,  6) (  1,  3,  6)
     0.3771E-03    0.2296E-03    0.1398E-03
  (  1,  3,  6) (  1,  3,  6) (  1,  3,  6)


 OUTPUT CONTROL FOR STRESS PERIOD      4   TIME STEP    15
    PRINT BUDGET
    PRINT HEAD FOR ALL LAYERS
    SAVE HEAD FOR ALL LAYERS
    SAVE BUDGET

           WELLS   PERIOD 4   STEP 15
WELL          1   LAYER          1   ROW          6   COL          4   RATE -1.0
WELL          2   LAYER          1   ROW          6   COL          5   RATE -1.0
WELL          3   LAYER          1   ROW          7   COL          4   RATE -1.0
WELL          4   LAYER          1   ROW          7   COL          5   RATE -1.0
WELL          5   LAYER          1   ROW          8   COL          4   RATE -1.0
WELL          6   LAYER          1   ROW          8   COL          5   RATE -1.0
WELL          7   LAYER          1   ROW          9   COL          4   RATE -1.0
WELL          8   LAYER          1   ROW          9   COL          5   RATE -1.0
WELL          9   LAYER          1   ROW         10   COL          4   RATE -1.0
WELL         10   LAYER          1   ROW         10   COL          5   RATE -1.0

  HEAD DEP BOUNDS   PERIOD    4   STEP  15
 BOUNDARY      1   LAYER   1   ROW    13   COL     1   RATE   -0.263663       COND    0.380000E-01
 BOUNDARY      2   LAYER   1   ROW    14   COL     9   RATE    0.208307       COND    0.380000E-01



 STREAM LISTING     PERIOD      4   STEP       15

 LAYER ROW COL. STREAM  RCH.  FLOW INTO     FLOW TO   FLOW OUT OF   OVRLND.     DIRECT     STREAM       STREAM     STREAM     STREAM   STREAMBED  STREAMBED  STREAMBED
                SEG.NO.  NO.  STRM. RCH.    AQUIFER    STRM. RCH.    RUNOFF     PRECIP       ET          HEAD       DEPTH      WIDTH   CONDCTNC.   GRADIENT  ELEVATION

   1    1    1     1     1    2.5000E+01  9.8746E-01   2.4013E+01  0.000E+00  0.000E+00  0.000E+00  1.09422E+03  1.173E+00  1.296E+01  5.834E-01  5.642E-01  1.093E+03
   1    2    2     1     2    2.4013E+01  3.0040E+00   2.1009E+01  0.000E+00  0.000E+00  0.000E+00  1.08920E+03  1.142E+00  1.255E+01  8.786E-01  1.140E+00  1.088E+03
   1    3    3     1     3    2.1009E+01  2.9138E+00   1.8095E+01  0.000E+00  0.000E+00  0.000E+00  1.08351E+03  1.093E+00  1.187E+01  7.119E-01  1.364E+00  1.082E+03
   1    3    4     1     4    1.8095E+01  2.4755E+00   1.5619E+01  0.000E+00  0.000E+00  0.000E+00  1.07845E+03  1.047E+00  1.102E+01  6.117E-01  1.349E+00  1.077E+03
   1    4    5     2     1    5.6193E+00  2.6669E+00   2.9524E+00  0.000E+00  0.000E+00  0.000E+00  1.07235E+03  4.191E-01  1.200E+01  7.800E-01  1.140E+00  1.072E+03
   1    5    6     2     2    2.9524E+00  1.9579E+00   9.9446E-01  0.000E+00  0.000E+00  0.000E+00  1.06677E+03  2.632E-01  1.200E+01  6.000E-01  1.088E+00  1.067E+03
   1    6    6     2     3    9.9446E-01  9.9446E-01   0.0000E+00  0.000E+00  0.000E+00  0.000E+00  1.06181E+03  1.963E-02  1.200E+01  6.000E-01  1.007E+00  1.062E+03
   1    7    6     2     4    0.0000E+00  0.0000E+00   0.0000E+00  0.000E+00  0.000E+00  0.000E+00  1.05708E+03  0.000E+00  1.200E+01  6.000E-01  1.000E+00  1.057E+03
   1    8    6     2     5    0.0000E+00  0.0000E+00   0.0000E+00  0.000E+00  0.000E+00  0.000E+00  1.05236E+03  0.000E+00  1.200E+01  6.000E-01  1.000E+00  1.052E+03
   1    3    5     3     1    1.0000E+01  1.4907E+00   8.5093E+00  0.000E+00  0.000E+00  0.000E+00  1.07555E+03  1.909E+00  9.636E+00  7.227E-01  1.031E+00  1.074E+03
   1    3    6     3     2    8.5093E+00  1.3776E-01   8.3715E+00  0.000E+00  0.000E+00  0.000E+00  1.07264E+03  1.727E+00  8.909E+00  6.682E-01  1.031E-01  1.071E+03
   1    3    7     3     3    8.3715E+00 -7.0386E-02   8.4419E+00  0.000E+00  0.000E+00  0.000E+00  1.06987E+03  1.555E+00  8.218E+00  5.547E-01 -6.344E-02  1.068E+03
   1    4    8     3     4    8.4419E+00  1.5830E+00   6.8589E+00  0.000E+00  0.000E+00  0.000E+00  1.06682E+03  1.364E+00  7.455E+00  6.709E-01  1.180E+00  1.065E+03
   1    5    8     3     5    6.8589E+00  1.5789E+00   5.2800E+00  0.000E+00  0.000E+00  0.000E+00  1.06362E+03  1.164E+00  6.655E+00  4.991E-01  1.582E+00  1.062E+03
   1    6    8     3     6    5.2800E+00  5.5980E-01   4.7202E+00  0.000E+00  0.000E+00  0.000E+00  1.06158E+03  1.036E+00  6.145E+00  1.844E-01  1.518E+00  1.061E+03
   1    5   10     4     1    1.0000E+01  9.0525E-01   9.0947E+00  0.000E+00  0.000E+00  0.000E+00  1.07835E+03  6.210E-01  1.000E+01  2.500E-01  1.207E+00  1.078E+03
   1    5    9     4     2    9.0947E+00  1.7835E+00   7.3113E+00  0.000E+00  0.000E+00  0.000E+00  1.07148E+03  5.670E-01  1.000E+01  5.000E-01  1.189E+00  1.071E+03
   1    6    8     4     3    7.3113E+00  1.2257E+00   6.0855E+00  0.000E+00  0.000E+00  0.000E+00  1.06368E+03  5.021E-01  1.000E+01  3.500E-01  1.167E+00  1.063E+03
   1    6    8     5     1    1.0806E+01  1.3310E+00   9.4748E+00  0.000E+00  0.000E+00  0.000E+00  1.05867E+03  6.749E-01  1.525E+01  6.102E-01  7.271E-01  1.058E+03
   1    7    7     5     2    9.4748E+00  2.4454E+00   7.0294E+00  0.000E+00  0.000E+00  0.000E+00  1.05413E+03  6.279E-01  1.348E+01  6.740E-01  1.209E+00  1.054E+03
   1    8    7     5     3    7.0294E+00  1.4349E+00   5.5945E+00  0.000E+00  0.000E+00  0.000E+00  1.04982E+03  5.717E-01  1.148E+01  4.017E-01  1.191E+00  1.049E+03
   1    8    6     5     4    5.5945E+00  8.9672E-01   4.6978E+00  0.000E+00  0.000E+00  0.000E+00  1.04678E+03  5.323E-01  1.015E+01  2.539E-01  1.177E+00  1.046E+03
   1    9    6     6     1    4.6978E+00  2.0321E+00   2.6657E+00  0.000E+00  0.000E+00  0.000E+00  1.04311E+03  3.869E-01  1.200E+01  6.000E-01  1.129E+00  1.043E+03
   1   10    7     6     2    2.6657E+00  1.9456E+00   7.2002E-01  0.000E+00  0.000E+00  0.000E+00  1.03842E+03  2.427E-01  1.200E+01  6.000E-01  1.081E+00  1.038E+03
   1   11    7     6     3    7.2002E-01  7.2002E-01   0.0000E+00  0.000E+00  0.000E+00  0.000E+00  1.03367E+03  3.270E-02  1.200E+01  6.000E-01  1.011E+00  1.034E+03
   1   12    7     6     4    0.0000E+00  0.0000E+00   0.0000E+00  0.000E+00  0.000E+00  0.000E+00  1.02909E+03  0.000E+00  1.200E+01  6.000E-01  3.191E-01  1.029E+03
   1   13    7     6     5    0.0000E+00 -7.9703E-01   7.9703E-01  0.000E+00  0.000E+00  0.000E+00  1.02601E+03  1.019E-01  1.200E+01  2.400E-01 -1.107E+00  1.026E+03
   1   14    9     7     1    1.5000E+02  1.9488E+00   1.4805E+02  0.000E+00  0.000E+00  0.000E+00  1.03987E+03  2.286E+00  5.529E+01  5.592E+00  1.162E-01  1.038E+03
   1   13    8     7     2    1.4805E+02  2.9360E+00   1.4512E+02  0.000E+00  0.000E+00  0.000E+00  1.03477E+03  2.273E+00  5.523E+01  6.144E+00  1.593E-01  1.032E+03
   1   13    7     7     3    1.4512E+02  1.9384E+00   1.4318E+02  0.000E+00  0.000E+00  0.000E+00  1.02968E+03  2.260E+00  5.517E+01  5.579E+00  1.158E-01  1.027E+03
   1   13    6     8     1    1.4397E+02  2.5829E-01   1.4372E+02  0.000E+00  0.000E+00  0.000E+00  1.02465E+03  2.773E+00  4.021E+01  4.097E+00  2.101E-02  1.022E+03
   1   13    5     8     2    1.4372E+02 -2.6023E+00   1.4632E+02  0.000E+00  0.000E+00  0.000E+00  1.01841E+03  2.781E+00  4.033E+01  4.110E+00 -2.111E-01  1.016E+03
   1   13    4     8     3    1.4632E+02 -4.3626E+00   1.5068E+02  0.000E+00  0.000E+00  0.000E+00  1.01218E+03  2.806E+00  4.069E+01  4.146E+00 -3.507E-01  1.009E+03
   1   13    3     8     4    1.5068E+02 -4.6390E+00   1.5532E+02  0.000E+00  0.000E+00  0.000E+00  1.00596E+03  2.838E+00  4.115E+01  4.193E+00 -3.688E-01  1.003E+03
   1   13    2     8     5    1.5532E+02 -2.1150E+00   1.5743E+02  0.000E+00  0.000E+00  0.000E+00  9.99736E+02  2.861E+00  4.149E+01  4.228E+00 -1.668E-01  9.969E+02
   1   13    1     8     6    1.5743E+02 -4.9217E-01   1.5793E+02  0.000E+00  0.000E+00  0.000E+00  9.94745E+02  2.870E+00  4.162E+01  2.545E+00 -6.447E-02  9.919E+02



 UBDSV3 SAVING "           GW ET" ON UNIT 61 AT TIME STEP 15, STRESS PERIOD 4
 UBDSV3 SAVING "    UZF RECHARGE" ON UNIT 61 AT TIME STEP 15, STRESS PERIOD 4
 UBDSV3 SAVING " SURFACE LEAKAGE" ON UNIT 61 AT TIME STEP 15, STRESS PERIOD 4
 UBDSV3 SAVING "       HORT+DUNN" ON UNIT 61 AT TIME STEP 15, STRESS PERIOD 4
 UBDSV3 SAVING "  STORAGE CHANGE" ON UNIT 61 AT TIME STEP 15, STRESS PERIOD 4


UNSATURATED ZONE PACKAGE VOLUMETRIC BUDGET FOR  TIME STEP    15 STRESS PERIOD    4
  ------------------------------------------------------------------------------



     CUMULATIVE VOLUMES      L**3       RATES FOR THIS TIME STEP      L**3/T
     ------------------                 ------------------------

           IN:                                      IN:
           ---                                      ---
        INFILTRATION =     8.6861970E+8          INFILTRATION =            169.5

          OUT:                                     OUT:
          ----                                     ----
              UZF ET =     8.9755477E+8                UZF ET =       91.5067299
        UZF RECHARGE =     1.4907413E+8          UZF RECHARGE =       25.7727921

            IN - OUT =    -1.7800920E+8              IN - OUT =       52.2204780

          STORAGE:                                 STORAGE:
          --------                                 --------
      STORAGE CHANGE =    -1.7781182E+8        STORAGE CHANGE =       52.2303117

 PERCENT DISCREPANCY =          -0.00     PERCENT DISCREPANCY =          -0.01




 PERCENT DISCREPANCY IS DIFFERENCE BETWEEN IN-OUT MINUS CHANGE IN STORAGE
 DIVIDED BY THE AVERAGE OF IN AND OUT TIMES 100



1
              HEAD IN LAYER   1 AT END OF TIME STEP  15 IN STRESS PERIOD    4
  ---------------------------------------------------------------------------

           1       2       3       4       5       6       7       8       9      10
 ...................................................................................
   1  1092.53 1088.69 6999.00 6999.00 6999.00 6999.00 6999.00 6999.00 6999.00 6999.00
   2  1089.19 1085.78 1079.11 6999.00 6999.00 1071.88 1071.05 1070.40 6999.00 6999.00
   3  6999.00 1077.40 1074.31 1070.19 1073.48 1072.43 1070.00 1068.03 6999.00 6999.00
   4  1067.82 1068.32 1066.51 1062.93 1061.90 1060.65 1061.45 1064.46 1063.77 6999.00
   5  1063.68 1061.24 1058.50 1056.43 1056.20 1056.88 1056.92 1059.30 1062.91 1065.33
   6  1058.99 1055.29 1052.05 1050.17 1050.52 1052.25 1053.76 1056.49 1059.29 1063.63
   7  1055.33 1049.61 1046.15 1044.48 1045.16 1047.21 1050.01 1052.51 1054.08 6999.00
   8  6999.00 1042.26 1040.07 1038.89 1039.85 1042.13 1044.19 1046.96 1049.12 6999.00
   9  6999.00 1035.33 1034.10 1033.57 1034.85 1037.26 1038.34 1040.48 1043.70 6999.00
  10  6999.00 1028.31 1028.20 1028.77 1030.32 1032.43 1034.15 1035.97 1039.95 1044.37
  11  6999.00 1019.59 1021.05 1024.33 1026.43 1028.63 1030.36 1032.69 1036.24 6999.00
  12  1001.16 1008.81 1014.05 1018.81 1022.47 1025.72 1028.13 1031.04 1034.83 6999.00
  13   994.94 1000.24 1007.07 1013.23 1019.04 1024.58 1029.33 1034.30 1036.48 6999.00
  14  6999.00 1005.82 1011.51 1016.23 1021.27 1026.08 1030.47 1035.35 1039.52 6999.00
  15  6999.00 6999.00 1018.83 1021.82 1025.56 1028.54 6999.00 6999.00 6999.00 6999.00

 HEAD WILL BE SAVED ON UNIT   58 AT END OF TIME STEP    15 IN STRESS PERIOD      4



  -------------------------------------------------------------------------------------
  VOLUMETRIC BUDGET FOR ENTIRE MODEL AT END OF TIME STEP   15 IN STRESS PERIOD      4
  -------------------------------------------------------------------------------------

     CUMULATIVE VOLUMES      L**3       RATES FOR THIS TIME STEP      L**3/T
     ------------------                 ------------------------

           IN:                                      IN:
           ---                                      ---
             STORAGE =      675502.4054               STORAGE =       8.3769E-02
       CONSTANT HEAD =           0.0000         CONSTANT HEAD =           0.0000
               WELLS =           0.0000                 WELLS =           0.0000
     HEAD DEP BOUNDS =     2195497.9506       HEAD DEP BOUNDS =           0.2083
      STREAM LEAKAGE =   456953919.7017        STREAM LEAKAGE =          42.1519
        UZF RECHARGE =   149074126.2466          UZF RECHARGE =          25.7728
               GW ET =           0.0000                 GW ET =           0.0000
     SURFACE LEAKAGE =           0.0000       SURFACE LEAKAGE =           0.0000

            TOTAL IN =   608899046.3043              TOTAL IN =          68.2168

          OUT:                                     OUT:
          ----                                     ----
             STORAGE =   143022001.7612               STORAGE =          27.3889
       CONSTANT HEAD =           0.0000         CONSTANT HEAD =           0.0000
               WELLS =   157680000.0000                 WELLS =          10.0000
     HEAD DEP BOUNDS =     2757602.7450       HEAD DEP BOUNDS =           0.2637
      STREAM LEAKAGE =   138752877.5380        STREAM LEAKAGE =          15.0786
        UZF RECHARGE =           0.0000          UZF RECHARGE =           0.0000
               GW ET =   166627785.5443                 GW ET =          15.4832
     SURFACE LEAKAGE =           0.0000       SURFACE LEAKAGE =           0.0000

           TOTAL OUT =   608840267.5884             TOTAL OUT =          68.2143

            IN - OUT =       58778.7159              IN - OUT =       2.4991E-03

 PERCENT DISCREPANCY =           0.01     PERCENT DISCREPANCY =           0.00


          TIME SUMMARY AT END OF TIME STEP    15 IN STRESS PERIOD      4
                    SECONDS     MINUTES      HOURS       DAYS        YEARS
                    -----------------------------------------------------------
   TIME STEP LENGTH 3.14103E+05  5235.0      87.251      3.6354     9.95332E-03
 STRESS PERIOD TIME 2.62800E+06  43800.      730.00      30.417     8.32763E-02
         TOTAL TIME 1.05120E+07 1.75200E+05  2920.0      121.67     0.33311    
 
1
                            STRESS PERIOD NO.      5, LENGTH =   2628000.    
                            -----------------------------------------------

                              NUMBER OF TIME STEPS =    15

                               MULTIPLIER FOR DELT =     1.100

                            INITIAL TIME STEP SIZE =   82713.09    

 WEL PACKAGE STRESS PERIOD INFORMATION [BEFORE APPLICATION OF TABFILES]

 WELL NO.  LAYER   ROW   COL   STRESS RATE         
 --------------------------------------------------
      1      1      6      4  -3.0000000    
      2      1      6      5  -3.0000000    
      3      1      7      4  -3.0000000    
      4      1      7      5  -3.0000000    
      5      1      8      4  -3.0000000    
      6      1      8      5  -3.0000000    
      7      1      9      4  -3.0000000    
      8      1      9      5  -3.0000000    
      9      1     10      4  -3.0000000    
     10      1     10      5  -3.0000000    

10 WELLS

 REUSING NON-PARAMETER GHB CELLS FROM LAST STRESS PERIOD

      2 GHB CELLS

 REUSING STREAM SEGMENT DATA FROM LAST STRESS PERIOD



            AREAL INFILTRATION RATE
 READING ON UNIT   19 WITH FORMAT: (10F4.0)            

            1           2           3           4           5           6           7           8           9          10
 ........................................................................................................................
   1   0.5000E-08  0.1000E-07   0.000       0.000       0.000       0.000       0.000       0.000       0.000       0.000    
   2   0.1000E-07  0.5000E-08  0.1000E-07   0.000       0.000      0.4000E-07  0.4000E-07  0.2500E-07   0.000       0.000    
   3    0.000      0.2500E-07  0.5000E-08  0.5000E-08  0.4000E-07  0.4000E-07  0.2500E-07  0.2500E-07   0.000       0.000    
   4   0.4000E-07  0.2500E-07  0.5000E-08  0.5000E-08  0.5000E-08  0.5000E-08  0.5000E-08  0.5000E-08  0.1000E-07   0.000    
   5   0.4000E-07  0.2500E-07  0.5000E-08  0.5000E-08  0.5000E-08  0.5000E-08  0.5000E-08  0.5000E-08  0.5000E-08  0.5000E-08
   6   0.4000E-07  0.2500E-07  0.2500E-07  0.1000E-07  0.1000E-07  0.5000E-08  0.5000E-08  0.5000E-08  0.5000E-08  0.2500E-07
   7   0.4000E-07  0.2500E-07  0.2500E-07  0.1000E-07  0.1000E-07  0.5000E-08  0.5000E-08  0.1000E-07  0.1000E-07   0.000    
   8    0.000      0.2500E-07  0.2500E-07  0.1000E-07  0.1000E-07  0.5000E-08  0.5000E-08  0.1000E-07  0.2500E-07   0.000    
   9    0.000      0.2500E-07  0.2500E-07  0.1000E-07  0.1000E-07  0.5000E-08  0.5000E-08  0.1000E-07  0.2500E-07   0.000    
  10    0.000      0.2500E-07  0.2500E-07  0.1000E-07  0.1000E-07  0.5000E-08  0.5000E-08  0.1000E-07  0.2500E-07  0.4000E-07
  11    0.000      0.5000E-08  0.5000E-08  0.5000E-08  0.5000E-08  0.5000E-08  0.5000E-08  0.1000E-07  0.2500E-07   0.000    
  12   0.5000E-08  0.5000E-08  0.5000E-08  0.5000E-08  0.5000E-08  0.5000E-08  0.5000E-08  0.5000E-08  0.1000E-07   0.000    
  13   0.5000E-08  0.5000E-08  0.1000E-07  0.1000E-07  0.1000E-07  0.1000E-07  0.1000E-07  0.5000E-08  0.5000E-08   0.000    
  14    0.000      0.1000E-07  0.2500E-07  0.2500E-07  0.2500E-07  0.2500E-07  0.2500E-07  0.1000E-07  0.5000E-08   0.000    
  15    0.000       0.000      0.4000E-07  0.4000E-07  0.4000E-07  0.4000E-07   0.000       0.000       0.000       0.000    

USING ET RATE FROM PREVIOUS STRESS PERIOD. CURRENT PERIOD IS:       5

 USING ET EXTINCTION DEPTH FROM PREVIOUS STRESS PERIOD. CURRENT PERIOD IS:       5

 USING EXTINCTION WATER CONTENT FROM PREVIOUS STRESS PERIOD. CURRENT PERIOD IS:       5
 
 SOLVING FOR HEAD 

    11 ITERATIONS FOR TIME STEP   1 IN STRESS PERIOD    5

 MAXIMUM HEAD CHANGE FOR EACH ITERATION:

    HEAD CHANGE   HEAD CHANGE   HEAD CHANGE   HEAD CHANGE   HEAD CHANGE
  LAYER,ROW,COL LAYER,ROW,COL LAYER,ROW,COL LAYER,ROW,COL LAYER,ROW,COL
 ----------------------------------------------------------------------
    -0.1980E-01    0.7399E-02    0.4811E-02    0.3127E-02    0.2031E-02
  (  1,  6,  5) (  1,  3,  6) (  1,  3,  6) (  1,  3,  6) (  1,  3,  6)
     0.1319E-02    0.8568E-03    0.5563E-03    0.3611E-03    0.2344E-03
  (  1,  3,  6) (  1,  3,  6) (  1,  3,  6) (  1,  3,  6) (  1,  3,  6)
     0.1521E-03
  (  1,  3,  6)


 NO OUTPUT CONTROL FOR STRESS PERIOD      5   TIME STEP     1
 
 SOLVING FOR HEAD 
    11 ITERATIONS FOR TIME STEP   2 IN STRESS PERIOD    5

 MAXIMUM HEAD CHANGE FOR EACH ITERATION:

    HEAD CHANGE   HEAD CHANGE   HEAD CHANGE   HEAD CHANGE   HEAD CHANGE
  LAYER,ROW,COL LAYER,ROW,COL LAYER,ROW,COL LAYER,ROW,COL LAYER,ROW,COL
 ----------------------------------------------------------------------
    -0.2175E-01    0.7559E-02    0.4879E-02    0.3166E-02    0.2054E-02
  (  1,  6,  4) (  1,  3,  7) (  1,  3,  6) (  1,  3,  6) (  1,  3,  6)
     0.1332E-02    0.8639E-03    0.5600E-03    0.3630E-03    0.2353E-03
  (  1,  3,  6) (  1,  3,  6) (  1,  3,  6) (  1,  3,  6) (  1,  3,  6)
     0.1524E-03
  (  1,  3,  6)


 NO OUTPUT CONTROL FOR STRESS PERIOD      5   TIME STEP     2
 
 SOLVING FOR HEAD 
    11 ITERATIONS FOR TIME STEP   3 IN STRESS PERIOD    5

 MAXIMUM HEAD CHANGE FOR EACH ITERATION:

    HEAD CHANGE   HEAD CHANGE   HEAD CHANGE   HEAD CHANGE   HEAD CHANGE
  LAYER,ROW,COL LAYER,ROW,COL LAYER,ROW,COL LAYER,ROW,COL LAYER,ROW,COL
 ----------------------------------------------------------------------
    -0.2325E-01    0.7893E-02    0.4971E-02    0.3220E-02    0.2085E-02
  (  1,  6,  4) (  1,  3,  7) (  1,  3,  6) (  1,  3,  6) (  1,  3,  6)
     0.1349E-02    0.8731E-03    0.5648E-03    0.3653E-03    0.2362E-03
  (  1,  3,  6) (  1,  3,  6) (  1,  3,  6) (  1,  3,  6) (  1,  3,  6)
     0.1527E-03
  (  1,  3,  6)


 NO OUTPUT CONTROL FOR STRESS PERIOD      5   TIME STEP     3
 
 SOLVING FOR HEAD 
    10 ITERATIONS FOR TIME STEP   4 IN STRESS PERIOD    5

 MAXIMUM HEAD CHANGE FOR EACH ITERATION:

    HEAD CHANGE   HEAD CHANGE   HEAD CHANGE   HEAD CHANGE   HEAD CHANGE
  LAYER,ROW,COL LAYER,ROW,COL LAYER,ROW,COL LAYER,ROW,COL LAYER,ROW,COL
 ----------------------------------------------------------------------
    -0.2485E-01    0.7740E-02    0.4503E-02    0.2818E-02    0.1793E-02
  (  1, 10,  4) (  1,  3,  7) (  1,  3,  7) (  1,  3,  5) (  1,  3,  5)
     0.1142E-02    0.7266E-03    0.4625E-03    0.2943E-03    0.1873E-03
  (  1,  3,  5) (  1,  3,  5) (  1,  3,  5) (  1,  3,  5) (  1,  3,  5)


 NO OUTPUT CONTROL FOR STRESS PERIOD      5   TIME STEP     4
 
 SOLVING FOR HEAD 
    11 ITERATIONS FOR TIME STEP   5 IN STRESS PERIOD    5

 MAXIMUM HEAD CHANGE FOR EACH ITERATION:

    HEAD CHANGE   HEAD CHANGE   HEAD CHANGE   HEAD CHANGE   HEAD CHANGE
  LAYER,ROW,COL LAYER,ROW,COL LAYER,ROW,COL LAYER,ROW,COL LAYER,ROW,COL
 ----------------------------------------------------------------------
    -0.3770E-01   -0.2127E-01   -0.1200E-01   -0.6777E-02   -0.3826E-02
  (  1,  3,  6) (  1,  3,  6) (  1,  3,  6) (  1,  3,  6) (  1,  3,  6)
    -0.2160E-02   -0.1220E-02   -0.6886E-03   -0.3888E-03   -0.2196E-03
  (  1,  3,  6) (  1,  3,  6) (  1,  3,  6) (  1,  3,  6) (  1,  3,  6)
    -0.1240E-03
  (  1,  3,  6)


 OUTPUT CONTROL FOR STRESS PERIOD      5   TIME STEP     5
    PRINT BUDGET
    SAVE BUDGET

           WELLS   PERIOD 5   STEP 5
WELL          1   LAYER          1   ROW          6   COL          4   RATE -3.0
WELL          2   LAYER          1   ROW          6   COL          5   RATE -3.0
WELL          3   LAYER          1   ROW          7   COL          4   RATE -3.0
WELL          4   LAYER          1   ROW          7   COL          5   RATE -3.0
WELL          5   LAYER          1   ROW          8   COL          4   RATE -3.0
WELL          6   LAYER          1   ROW          8   COL          5   RATE -3.0
WELL          7   LAYER          1   ROW          9   COL          4   RATE -3.0
WELL          8   LAYER          1   ROW          9   COL          5   RATE -3.0
WELL          9   LAYER          1   ROW         10   COL          4   RATE -3.0
WELL         10   LAYER          1   ROW         10   COL          5   RATE -3.0

  HEAD DEP BOUNDS   PERIOD    5   STEP   5
 BOUNDARY      1   LAYER   1   ROW    13   COL     1   RATE   -0.265260       COND    0.380000E-01
 BOUNDARY      2   LAYER   1   ROW    14   COL     9   RATE    0.208353       COND    0.380000E-01



 STREAM LISTING     PERIOD      5   STEP        5

 LAYER ROW COL. STREAM  RCH.  FLOW INTO     FLOW TO   FLOW OUT OF   OVRLND.     DIRECT     STREAM       STREAM     STREAM     STREAM   STREAMBED  STREAMBED  STREAMBED
                SEG.NO.  NO.  STRM. RCH.    AQUIFER    STRM. RCH.    RUNOFF     PRECIP       ET          HEAD       DEPTH      WIDTH   CONDCTNC.   GRADIENT  ELEVATION

   1    1    1     1     1    2.5000E+01  9.8625E-01   2.4014E+01  0.000E+00  0.000E+00  0.000E+00  1.09422E+03  1.173E+00  1.296E+01  5.834E-01  5.635E-01  1.093E+03
   1    2    2     1     2    2.4014E+01  3.0025E+00   2.1011E+01  0.000E+00  0.000E+00  0.000E+00  1.08920E+03  1.142E+00  1.255E+01  8.787E-01  1.139E+00  1.088E+03
   1    3    3     1     3    2.1011E+01  2.9140E+00   1.8097E+01  0.000E+00  0.000E+00  0.000E+00  1.08351E+03  1.093E+00  1.187E+01  7.120E-01  1.364E+00  1.082E+03
   1    3    4     1     4    1.8097E+01  2.4757E+00   1.5622E+01  0.000E+00  0.000E+00  0.000E+00  1.07845E+03  1.047E+00  1.102E+01  6.117E-01  1.349E+00  1.077E+03
   1    4    5     2     1    5.6216E+00  2.6670E+00   2.9545E+00  0.000E+00  0.000E+00  0.000E+00  1.07235E+03  4.193E-01  1.200E+01  7.800E-01  1.140E+00  1.072E+03
   1    5    6     2     2    2.9545E+00  1.9580E+00   9.9653E-01  0.000E+00  0.000E+00  0.000E+00  1.06677E+03  2.634E-01  1.200E+01  6.000E-01  1.088E+00  1.067E+03
   1    6    6     2     3    9.9653E-01  9.9653E-01   0.0000E+00  0.000E+00  0.000E+00  0.000E+00  1.06183E+03  3.930E-02  1.200E+01  6.000E-01  1.013E+00  1.062E+03
   1    7    6     2     4    0.0000E+00  0.0000E+00   0.0000E+00  0.000E+00  0.000E+00  0.000E+00  1.05708E+03  0.000E+00  1.200E+01  6.000E-01  1.000E+00  1.057E+03
   1    8    6     2     5    0.0000E+00  0.0000E+00   0.0000E+00  0.000E+00  0.000E+00  0.000E+00  1.05236E+03  0.000E+00  1.200E+01  6.000E-01  1.000E+00  1.052E+03
   1    3    5     3     1    1.0000E+01  1.4050E+00   8.5950E+00  0.000E+00  0.000E+00  0.000E+00  1.07555E+03  1.909E+00  9.636E+00  7.227E-01  9.720E-01  1.074E+03
   1    3    6     3     2    8.5950E+00  1.2417E-01   8.4708E+00  0.000E+00  0.000E+00  0.000E+00  1.07264E+03  1.727E+00  8.909E+00  6.682E-01  9.292E-02  1.071E+03
   1    3    7     3     3    8.4708E+00 -1.3099E-01   8.6018E+00  0.000E+00  0.000E+00  0.000E+00  1.06987E+03  1.555E+00  8.218E+00  5.547E-01 -1.181E-01  1.068E+03
   1    4    8     3     4    8.6018E+00  1.5774E+00   7.0244E+00  0.000E+00  0.000E+00  0.000E+00  1.06682E+03  1.364E+00  7.455E+00  6.709E-01  1.176E+00  1.065E+03
   1    5    8     3     5    7.0244E+00  1.5789E+00   5.4454E+00  0.000E+00  0.000E+00  0.000E+00  1.06362E+03  1.164E+00  6.655E+00  4.991E-01  1.582E+00  1.062E+03
   1    6    8     3     6    5.4454E+00  5.5980E-01   4.8856E+00  0.000E+00  0.000E+00  0.000E+00  1.06158E+03  1.036E+00  6.145E+00  1.844E-01  1.518E+00  1.061E+03
   1    5   10     4     1    1.0000E+01  9.0525E-01   9.0947E+00  0.000E+00  0.000E+00  0.000E+00  1.07835E+03  6.210E-01  1.000E+01  2.500E-01  1.207E+00  1.078E+03
   1    5    9     4     2    9.0947E+00  1.7835E+00   7.3113E+00  0.000E+00  0.000E+00  0.000E+00  1.07148E+03  5.670E-01  1.000E+01  5.000E-01  1.189E+00  1.071E+03
   1    6    8     4     3    7.3113E+00  1.2257E+00   6.0855E+00  0.000E+00  0.000E+00  0.000E+00  1.06368E+03  5.021E-01  1.000E+01  3.500E-01  1.167E+00  1.063E+03
   1    6    8     5     1    1.0971E+01  1.3287E+00   9.6425E+00  0.000E+00  0.000E+00  0.000E+00  1.05868E+03  6.788E-01  1.540E+01  6.162E-01  7.188E-01  1.058E+03
   1    7    7     5     2    9.6425E+00  2.4753E+00   7.1672E+00  0.000E+00  0.000E+00  0.000E+00  1.05413E+03  6.320E-01  1.363E+01  6.815E-01  1.211E+00  1.054E+03
   1    8    7     5     3    7.1672E+00  1.4540E+00   5.7132E+00  0.000E+00  0.000E+00  0.000E+00  1.04983E+03  5.758E-01  1.162E+01  4.066E-01  1.192E+00  1.049E+03
   1    8    6     5     4    5.7132E+00  9.0949E-01   4.8038E+00  0.000E+00  0.000E+00  0.000E+00  1.04679E+03  5.363E-01  1.029E+01  2.572E-01  1.179E+00  1.046E+03
   1    9    6     6     1    4.8038E+00  2.0361E+00   2.7677E+00  0.000E+00  0.000E+00  0.000E+00  1.04312E+03  3.934E-01  1.200E+01  6.000E-01  1.131E+00  1.043E+03
   1   10    7     6     2    2.7677E+00  1.9507E+00   8.1697E-01  0.000E+00  0.000E+00  0.000E+00  1.03843E+03  2.512E-01  1.200E+01  6.000E-01  1.084E+00  1.038E+03
   1   11    7     6     3    8.1697E-01  8.1697E-01   0.0000E+00  0.000E+00  0.000E+00  0.000E+00  1.03367E+03  3.528E-02  1.200E+01  6.000E-01  1.012E+00  1.034E+03
   1   12    7     6     4    0.0000E+00  0.0000E+00   0.0000E+00  0.000E+00  0.000E+00  0.000E+00  1.02909E+03  0.000E+00  1.200E+01  6.000E-01  3.114E-01  1.029E+03
   1   13    7     6     5    0.0000E+00 -8.0041E-01   8.0041E-01  0.000E+00  0.000E+00  0.000E+00  1.02601E+03  1.022E-01  1.200E+01  2.400E-01 -1.112E+00  1.026E+03
   1   14    9     7     1    1.5000E+02  1.9556E+00   1.4804E+02  0.000E+00  0.000E+00  0.000E+00  1.03987E+03  2.286E+00  5.529E+01  5.592E+00  1.166E-01  1.038E+03
   1   13    8     7     2    1.4804E+02  2.9313E+00   1.4511E+02  0.000E+00  0.000E+00  0.000E+00  1.03477E+03  2.273E+00  5.523E+01  6.144E+00  1.590E-01  1.032E+03
   1   13    7     7     3    1.4511E+02  1.8595E+00   1.4325E+02  0.000E+00  0.000E+00  0.000E+00  1.02968E+03  2.260E+00  5.517E+01  5.579E+00  1.111E-01  1.027E+03
   1   13    6     8     1    1.4405E+02  1.9497E-01   1.4386E+02  0.000E+00  0.000E+00  0.000E+00  1.02465E+03  2.774E+00  4.022E+01  4.098E+00  1.586E-02  1.022E+03
   1   13    5     8     2    1.4386E+02 -2.5456E+00   1.4640E+02  0.000E+00  0.000E+00  0.000E+00  1.01841E+03  2.782E+00  4.034E+01  4.111E+00 -2.064E-01  1.016E+03
   1   13    4     8     3    1.4640E+02 -4.2132E+00   1.5062E+02  0.000E+00  0.000E+00  0.000E+00  1.01218E+03  2.806E+00  4.069E+01  4.147E+00 -3.387E-01  1.009E+03
   1   13    3     8     4    1.5062E+02 -4.5590E+00   1.5518E+02  0.000E+00  0.000E+00  0.000E+00  1.00596E+03  2.837E+00  4.114E+01  4.192E+00 -3.625E-01  1.003E+03
   1   13    2     8     5    1.5518E+02 -2.1265E+00   1.5730E+02  0.000E+00  0.000E+00  0.000E+00  9.99735E+02  2.860E+00  4.147E+01  4.226E+00 -1.677E-01  9.969E+02
   1   13    1     8     6    1.5730E+02 -6.0032E-01   1.5790E+02  0.000E+00  0.000E+00  0.000E+00  9.94745E+02  2.870E+00  4.161E+01  2.544E+00 -7.866E-02  9.919E+02



 UBDSV3 SAVING "           GW ET" ON UNIT 61 AT TIME STEP 5, STRESS PERIOD 5
 UBDSV3 SAVING "    UZF RECHARGE" ON UNIT 61 AT TIME STEP 5, STRESS PERIOD 5
 UBDSV3 SAVING " SURFACE LEAKAGE" ON UNIT 61 AT TIME STEP 5, STRESS PERIOD 5
 UBDSV3 SAVING "       HORT+DUNN" ON UNIT 61 AT TIME STEP 5, STRESS PERIOD 5
 UBDSV3 SAVING "  STORAGE CHANGE" ON UNIT 61 AT TIME STEP 5, STRESS PERIOD 5


UNSATURATED ZONE PACKAGE VOLUMETRIC BUDGET FOR  TIME STEP     5 STRESS PERIOD    5
  ------------------------------------------------------------------------------



     CUMULATIVE VOLUMES      L**3       RATES FOR THIS TIME STEP      L**3/T
     ------------------                 ------------------------

           IN:                                      IN:
           ---                                      ---
        INFILTRATION =     8.9001787E+8          INFILTRATION =           42.375

          OUT:                                     OUT:
          ----                                     ----
              UZF ET =     9.4320684E+8                UZF ET =       80.7294832
        UZF RECHARGE =     1.6003146E+8          UZF RECHARGE =       16.8685989

            IN - OUT =    -2.1322043E+8              IN - OUT =      -55.2230820

          STORAGE:                                 STORAGE:
          --------                                 --------
      STORAGE CHANGE =    -2.1301637E+8        STORAGE CHANGE =      -55.2160213

 PERCENT DISCREPANCY =          -0.00     PERCENT DISCREPANCY =          -0.01




 PERCENT DISCREPANCY IS DIFFERENCE BETWEEN IN-OUT MINUS CHANGE IN STORAGE
 DIVIDED BY THE AVERAGE OF IN AND OUT TIMES 100






  -------------------------------------------------------------------------------------
  VOLUMETRIC BUDGET FOR ENTIRE MODEL AT END OF TIME STEP    5 IN STRESS PERIOD      5
  -------------------------------------------------------------------------------------

     CUMULATIVE VOLUMES      L**3       RATES FOR THIS TIME STEP      L**3/T
     ------------------                 ------------------------

           IN:                                      IN:
           ---                                      ---
             STORAGE =     8410530.4028               STORAGE =          17.4032
       CONSTANT HEAD =           0.0000         CONSTANT HEAD =           0.0000
               WELLS =           0.0000                 WELLS =           0.0000
     HEAD DEP BOUNDS =     2300691.8094       HEAD DEP BOUNDS =           0.2084
      STREAM LEAKAGE =   478214658.0875        STREAM LEAKAGE =          42.0723
        UZF RECHARGE =   160031456.6956          UZF RECHARGE =          16.8686
               GW ET =           0.0000                 GW ET =           0.0000
     SURFACE LEAKAGE =           0.0000       SURFACE LEAKAGE =           0.0000

            TOTAL IN =   648957336.9954              TOTAL IN =          76.5525

          OUT:                                     OUT:
          ----                                     ----
             STORAGE =   152097816.0393               STORAGE =          14.0123
       CONSTANT HEAD =           0.0000         CONSTANT HEAD =           0.0000
               WELLS =   172829149.7779                 WELLS =          30.0000
     HEAD DEP BOUNDS =     2891256.9231       HEAD DEP BOUNDS =           0.2653
      STREAM LEAKAGE =   146384787.9847        STREAM LEAKAGE =          14.9761
        UZF RECHARGE =           0.0000          UZF RECHARGE =           0.0000
               GW ET =   174692769.8200                 GW ET =          17.3013
     SURFACE LEAKAGE =           0.0000       SURFACE LEAKAGE =           0.0000

           TOTAL OUT =   648895780.5450             TOTAL OUT =          76.5549

            IN - OUT =       61556.4504              IN - OUT =      -2.4367E-03

 PERCENT DISCREPANCY =           0.01     PERCENT DISCREPANCY =          -0.00


          TIME SUMMARY AT END OF TIME STEP     5 IN STRESS PERIOD      5
                    SECONDS     MINUTES      HOURS       DAYS        YEARS
                    -----------------------------------------------------------
   TIME STEP LENGTH 1.21100E+05  2018.3      33.639      1.4016     3.83743E-03
 STRESS PERIOD TIME 5.04972E+05  8416.2      140.27      5.8446     1.60016E-02
         TOTAL TIME 1.10170E+07 1.83616E+05  3060.3      127.51     0.34911    
 
 
 SOLVING FOR HEAD 
    11 ITERATIONS FOR TIME STEP   6 IN STRESS PERIOD    5

 MAXIMUM HEAD CHANGE FOR EACH ITERATION:

    HEAD CHANGE   HEAD CHANGE   HEAD CHANGE   HEAD CHANGE   HEAD CHANGE
  LAYER,ROW,COL LAYER,ROW,COL LAYER,ROW,COL LAYER,ROW,COL LAYER,ROW,COL
 ----------------------------------------------------------------------
    -0.6366E-01   -0.3406E-01   -0.1826E-01   -0.9790E-02   -0.5251E-02
  (  1,  3,  6) (  1,  3,  6) (  1,  3,  6) (  1,  3,  6) (  1,  3,  6)
    -0.2817E-02   -0.1511E-02   -0.8108E-03   -0.4351E-03   -0.2362E-03
  (  1,  3,  6) (  1,  3,  6) (  1,  3,  6) (  1,  3,  6) (  1,  3,  5)
    -0.1336E-03
  (  1,  3,  5)


 NO OUTPUT CONTROL FOR STRESS PERIOD      5   TIME STEP     6
 
 SOLVING FOR HEAD 
    11 ITERATIONS FOR TIME STEP   7 IN STRESS PERIOD    5

 MAXIMUM HEAD CHANGE FOR EACH ITERATION:

    HEAD CHANGE   HEAD CHANGE   HEAD CHANGE   HEAD CHANGE   HEAD CHANGE
  LAYER,ROW,COL LAYER,ROW,COL LAYER,ROW,COL LAYER,ROW,COL LAYER,ROW,COL
 ----------------------------------------------------------------------
    -0.7994E-01   -0.4081E-01   -0.2091E-01   -0.1071E-01   -0.5492E-02
  (  1,  3,  6) (  1,  3,  6) (  1,  3,  6) (  1,  3,  6) (  1,  3,  6)
    -0.2863E-02   -0.1534E-02   -0.8228E-03   -0.4408E-03   -0.2363E-03
  (  1,  3,  5) (  1,  3,  5) (  1,  3,  5) (  1,  3,  5) (  1,  3,  5)
    -0.1266E-03
  (  1,  3,  5)


 NO OUTPUT CONTROL FOR STRESS PERIOD      5   TIME STEP     7
 
 SOLVING FOR HEAD 
    10 ITERATIONS FOR TIME STEP   8 IN STRESS PERIOD    5

 MAXIMUM HEAD CHANGE FOR EACH ITERATION:

    HEAD CHANGE   HEAD CHANGE   HEAD CHANGE   HEAD CHANGE   HEAD CHANGE
  LAYER,ROW,COL LAYER,ROW,COL LAYER,ROW,COL LAYER,ROW,COL LAYER,ROW,COL
 ----------------------------------------------------------------------
    -0.9132E-01   -0.4439E-01   -0.2158E-01   -0.1076E-01   -0.5511E-02
  (  1,  3,  6) (  1,  3,  6) (  1,  3,  6) (  1,  3,  5) (  1,  3,  5)
    -0.2816E-02   -0.1435E-02   -0.7320E-03   -0.3733E-03   -0.1904E-03
  (  1,  3,  5) (  1,  3,  5) (  1,  3,  5) (  1,  3,  5) (  1,  3,  5)


 NO OUTPUT CONTROL FOR STRESS PERIOD      5   TIME STEP     8
 
 SOLVING FOR HEAD 
    10 ITERATIONS FOR TIME STEP   9 IN STRESS PERIOD    5

 MAXIMUM HEAD CHANGE FOR EACH ITERATION:

    HEAD CHANGE   HEAD CHANGE   HEAD CHANGE   HEAD CHANGE   HEAD CHANGE
  LAYER,ROW,COL LAYER,ROW,COL LAYER,ROW,COL LAYER,ROW,COL LAYER,ROW,COL
 ----------------------------------------------------------------------
    -0.1018       -0.4774E-01   -0.2238E-01   -0.1056E-01   -0.5209E-02
  (  1,  3,  6) (  1,  3,  6) (  1,  3,  6) (  1,  3,  5) (  1,  3,  5)
    -0.2571E-02   -0.1268E-02   -0.6253E-03   -0.3084E-03   -0.1522E-03
  (  1,  3,  5) (  1,  3,  5) (  1,  3,  5) (  1,  3,  5) (  1,  3,  5)


 NO OUTPUT CONTROL FOR STRESS PERIOD      5   TIME STEP     9
 
 SOLVING FOR HEAD 
    10 ITERATIONS FOR TIME STEP  10 IN STRESS PERIOD    5

 MAXIMUM HEAD CHANGE FOR EACH ITERATION:

    HEAD CHANGE   HEAD CHANGE   HEAD CHANGE   HEAD CHANGE   HEAD CHANGE
  LAYER,ROW,COL LAYER,ROW,COL LAYER,ROW,COL LAYER,ROW,COL LAYER,ROW,COL
 ----------------------------------------------------------------------
    -0.1112       -0.5160E-01   -0.2128E-01   -0.9922E-02   -0.4625E-02
  (  1,  3,  6) (  1,  3,  6) (  1,  3,  5) (  1,  3,  5) (  1,  3,  5)
    -0.2158E-02   -0.1005E-02   -0.4686E-03   -0.2185E-03   -0.1019E-03
  (  1,  3,  5) (  1,  3,  5) (  1,  3,  5) (  1,  3,  5) (  1,  3,  5)


 OUTPUT CONTROL FOR STRESS PERIOD      5   TIME STEP    10
    PRINT BUDGET
    SAVE BUDGET

           WELLS   PERIOD 5   STEP 10
WELL          1   LAYER          1   ROW          6   COL          4   RATE -3.0
WELL          2   LAYER          1   ROW          6   COL          5   RATE -3.0
WELL          3   LAYER          1   ROW          7   COL          4   RATE -3.0
WELL          4   LAYER          1   ROW          7   COL          5   RATE -3.0
WELL          5   LAYER          1   ROW          8   COL          4   RATE -3.0
WELL          6   LAYER          1   ROW          8   COL          5   RATE -3.0
WELL          7   LAYER          1   ROW          9   COL          4   RATE -3.0
WELL          8   LAYER          1   ROW          9   COL          5   RATE -3.0
WELL          9   LAYER          1   ROW         10   COL          4   RATE -3.0
WELL         10   LAYER          1   ROW         10   COL          5   RATE -3.0

  HEAD DEP BOUNDS   PERIOD    5   STEP  10
 BOUNDARY      1   LAYER   1   ROW    13   COL     1   RATE   -0.266684       COND    0.380000E-01
 BOUNDARY      2   LAYER   1   ROW    14   COL     9   RATE    0.208818       COND    0.380000E-01



 STREAM LISTING     PERIOD      5   STEP       10

 LAYER ROW COL. STREAM  RCH.  FLOW INTO     FLOW TO   FLOW OUT OF   OVRLND.     DIRECT     STREAM       STREAM     STREAM     STREAM   STREAMBED  STREAMBED  STREAMBED
                SEG.NO.  NO.  STRM. RCH.    AQUIFER    STRM. RCH.    RUNOFF     PRECIP       ET          HEAD       DEPTH      WIDTH   CONDCTNC.   GRADIENT  ELEVATION

   1    1    1     1     1    2.5000E+01  9.9753E-01   2.4002E+01  0.000E+00  0.000E+00  0.000E+00  1.09422E+03  1.173E+00  1.296E+01  5.833E-01  5.700E-01  1.093E+03
   1    2    2     1     2    2.4002E+01  3.0239E+00   2.0979E+01  0.000E+00  0.000E+00  0.000E+00  1.08920E+03  1.141E+00  1.255E+01  8.783E-01  1.148E+00  1.088E+03
   1    3    3     1     3    2.0979E+01  2.9113E+00   1.8067E+01  0.000E+00  0.000E+00  0.000E+00  1.08351E+03  1.092E+00  1.186E+01  7.114E-01  1.364E+00  1.082E+03
   1    3    4     1     4    1.8067E+01  2.4732E+00   1.5594E+01  0.000E+00  0.000E+00  0.000E+00  1.07845E+03  1.046E+00  1.101E+01  6.112E-01  1.349E+00  1.077E+03
   1    4    5     2     1    5.5941E+00  2.6658E+00   2.9283E+00  0.000E+00  0.000E+00  0.000E+00  1.07235E+03  4.177E-01  1.200E+01  7.800E-01  1.139E+00  1.072E+03
   1    5    6     2     2    2.9283E+00  1.9568E+00   9.7147E-01  0.000E+00  0.000E+00  0.000E+00  1.06677E+03  2.613E-01  1.200E+01  6.000E-01  1.087E+00  1.067E+03
   1    6    6     2     3    9.7147E-01  9.7147E-01   0.0000E+00  0.000E+00  0.000E+00  0.000E+00  1.06181E+03  1.935E-02  1.200E+01  6.000E-01  1.006E+00  1.062E+03
   1    7    6     2     4    0.0000E+00  0.0000E+00   0.0000E+00  0.000E+00  0.000E+00  0.000E+00  1.05708E+03  0.000E+00  1.200E+01  6.000E-01  1.000E+00  1.057E+03
   1    8    6     2     5    0.0000E+00  0.0000E+00   0.0000E+00  0.000E+00  0.000E+00  0.000E+00  1.05236E+03  0.000E+00  1.200E+01  6.000E-01  1.000E+00  1.052E+03
   1    3    5     3     1    1.0000E+01  1.9495E+00   8.0505E+00  0.000E+00  0.000E+00  0.000E+00  1.07555E+03  1.909E+00  9.636E+00  7.227E-01  1.349E+00  1.074E+03
   1    3    6     3     2    8.0505E+00  6.8168E-01   7.3688E+00  0.000E+00  0.000E+00  0.000E+00  1.07264E+03  1.727E+00  8.909E+00  6.682E-01  5.101E-01  1.071E+03
   1    3    7     3     3    7.3688E+00  1.3056E-01   7.2383E+00  0.000E+00  0.000E+00  0.000E+00  1.06987E+03  1.555E+00  8.218E+00  5.547E-01  1.177E-01  1.068E+03
   1    4    8     3     4    7.2383E+00  1.5662E+00   5.6721E+00  0.000E+00  0.000E+00  0.000E+00  1.06682E+03  1.364E+00  7.455E+00  6.709E-01  1.167E+00  1.065E+03
   1    5    8     3     5    5.6721E+00  1.5789E+00   4.0931E+00  0.000E+00  0.000E+00  0.000E+00  1.06362E+03  1.164E+00  6.655E+00  4.991E-01  1.582E+00  1.062E+03
   1    6    8     3     6    4.0931E+00  5.5980E-01   3.5333E+00  0.000E+00  0.000E+00  0.000E+00  1.06158E+03  1.036E+00  6.145E+00  1.844E-01  1.518E+00  1.061E+03
   1    5   10     4     1    1.0000E+01  9.0525E-01   9.0947E+00  0.000E+00  0.000E+00  0.000E+00  1.07835E+03  6.210E-01  1.000E+01  2.500E-01  1.207E+00  1.078E+03
   1    5    9     4     2    9.0947E+00  1.7835E+00   7.3113E+00  0.000E+00  0.000E+00  0.000E+00  1.07148E+03  5.670E-01  1.000E+01  5.000E-01  1.189E+00  1.071E+03
   1    6    8     4     3    7.3113E+00  1.2257E+00   6.0855E+00  0.000E+00  0.000E+00  0.000E+00  1.06368E+03  5.021E-01  1.000E+01  3.500E-01  1.167E+00  1.063E+03
   1    6    8     5     1    9.6189E+00  1.2045E+00   8.4143E+00  0.000E+00  0.000E+00  0.000E+00  1.05865E+03  6.477E-01  1.422E+01  5.687E-01  7.060E-01  1.058E+03
   1    7    7     5     2    8.4143E+00  2.2530E+00   6.1613E+00  0.000E+00  0.000E+00  0.000E+00  1.05410E+03  6.012E-01  1.251E+01  6.256E-01  1.200E+00  1.054E+03
   1    8    7     5     3    6.1613E+00  1.3120E+00   4.8493E+00  0.000E+00  0.000E+00  0.000E+00  1.04980E+03  5.450E-01  1.057E+01  3.701E-01  1.182E+00  1.049E+03
   1    8    6     5     4    4.8493E+00  8.1476E-01   4.0345E+00  0.000E+00  0.000E+00  0.000E+00  1.04676E+03  5.056E-01  9.297E+00  2.324E-01  1.169E+00  1.046E+03
   1    9    6     6     1    4.0345E+00  2.0066E+00   2.0280E+00  0.000E+00  0.000E+00  0.000E+00  1.04307E+03  3.443E-01  1.200E+01  6.000E-01  1.115E+00  1.043E+03
   1   10    7     6     2    2.0280E+00  1.9108E+00   1.1719E-01  0.000E+00  0.000E+00  0.000E+00  1.03837E+03  1.846E-01  1.200E+01  6.000E-01  1.062E+00  1.038E+03
   1   11    7     6     3    1.1719E-01  1.1719E-01   0.0000E+00  0.000E+00  0.000E+00  0.000E+00  1.03365E+03  1.101E-02  1.200E+01  6.000E-01  1.004E+00  1.034E+03
   1   12    7     6     4    0.0000E+00  0.0000E+00   0.0000E+00  0.000E+00  0.000E+00  0.000E+00  1.02909E+03  0.000E+00  1.200E+01  6.000E-01  3.037E-01  1.029E+03
   1   13    7     6     5    0.0000E+00 -8.0210E-01   8.0210E-01  0.000E+00  0.000E+00  0.000E+00  1.02601E+03  1.023E-01  1.200E+01  2.400E-01 -1.114E+00  1.026E+03
   1   14    9     7     1    1.5000E+02  2.0229E+00   1.4798E+02  0.000E+00  0.000E+00  0.000E+00  1.03987E+03  2.286E+00  5.529E+01  5.592E+00  1.206E-01  1.038E+03
   1   13    8     7     2    1.4798E+02  2.9672E+00   1.4501E+02  0.000E+00  0.000E+00  0.000E+00  1.03477E+03  2.273E+00  5.523E+01  6.144E+00  1.610E-01  1.032E+03
   1   13    7     7     3    1.4501E+02  1.8168E+00   1.4319E+02  0.000E+00  0.000E+00  0.000E+00  1.02968E+03  2.260E+00  5.517E+01  5.579E+00  1.085E-01  1.027E+03
   1   13    6     8     1    1.4400E+02  1.8959E-01   1.4381E+02  0.000E+00  0.000E+00  0.000E+00  1.02465E+03  2.773E+00  4.021E+01  4.098E+00  1.542E-02  1.022E+03
   1   13    5     8     2    1.4381E+02 -2.2690E+00   1.4607E+02  0.000E+00  0.000E+00  0.000E+00  1.01841E+03  2.781E+00  4.032E+01  4.109E+00 -1.841E-01  1.016E+03
   1   13    4     8     3    1.4607E+02 -3.9615E+00   1.5004E+02  0.000E+00  0.000E+00  0.000E+00  1.01218E+03  2.803E+00  4.064E+01  4.142E+00 -3.188E-01  1.009E+03
   1   13    3     8     4    1.5004E+02 -4.2637E+00   1.5430E+02  0.000E+00  0.000E+00  0.000E+00  1.00596E+03  2.832E+00  4.106E+01  4.185E+00 -3.396E-01  1.003E+03
   1   13    2     8     5    1.5430E+02 -2.1032E+00   1.5640E+02  0.000E+00  0.000E+00  0.000E+00  9.99729E+02  2.854E+00  4.138E+01  4.217E+00 -1.662E-01  9.969E+02
   1   13    1     8     6    1.5640E+02 -7.0892E-01   1.5711E+02  0.000E+00  0.000E+00  0.000E+00  9.94739E+02  2.864E+00  4.152E+01  2.539E+00 -9.307E-02  9.919E+02



 UBDSV3 SAVING "           GW ET" ON UNIT 61 AT TIME STEP 10, STRESS PERIOD 5
 UBDSV3 SAVING "    UZF RECHARGE" ON UNIT 61 AT TIME STEP 10, STRESS PERIOD 5
 UBDSV3 SAVING " SURFACE LEAKAGE" ON UNIT 61 AT TIME STEP 10, STRESS PERIOD 5
 UBDSV3 SAVING "       HORT+DUNN" ON UNIT 61 AT TIME STEP 10, STRESS PERIOD 5
 UBDSV3 SAVING "  STORAGE CHANGE" ON UNIT 61 AT TIME STEP 10, STRESS PERIOD 5


UNSATURATED ZONE PACKAGE VOLUMETRIC BUDGET FOR  TIME STEP    10 STRESS PERIOD    5
  ------------------------------------------------------------------------------



     CUMULATIVE VOLUMES      L**3       RATES FOR THIS TIME STEP      L**3/T
     ------------------                 ------------------------

           IN:                                      IN:
           ---                                      ---
        INFILTRATION =     9.2447985E+8          INFILTRATION =           42.375

          OUT:                                     OUT:
          ----                                     ----
              UZF ET =     9.9699939E+8                UZF ET =       67.5640928
        UZF RECHARGE =     1.6857876E+8          UZF RECHARGE =        9.4562947

            IN - OUT =    -2.4109831E+8              IN - OUT =      -34.6453875

          STORAGE:                                 STORAGE:
          --------                                 --------
      STORAGE CHANGE =    -2.4089342E+8        STORAGE CHANGE =      -34.6443249

 PERCENT DISCREPANCY =          -0.00     PERCENT DISCREPANCY =          -0.00




 PERCENT DISCREPANCY IS DIFFERENCE BETWEEN IN-OUT MINUS CHANGE IN STORAGE
 DIVIDED BY THE AVERAGE OF IN AND OUT TIMES 100






  -------------------------------------------------------------------------------------
  VOLUMETRIC BUDGET FOR ENTIRE MODEL AT END OF TIME STEP   10 IN STRESS PERIOD      5
  -------------------------------------------------------------------------------------

     CUMULATIVE VOLUMES      L**3       RATES FOR THIS TIME STEP      L**3/T
     ------------------                 ------------------------

           IN:                                      IN:
           ---                                      ---
             STORAGE =    25022219.8795               STORAGE =          19.1187
       CONSTANT HEAD =           0.0000         CONSTANT HEAD =           0.0000
               WELLS =           0.0000                 WELLS =           0.0000
     HEAD DEP BOUNDS =     2470393.5454       HEAD DEP BOUNDS =           0.2088
      STREAM LEAKAGE =   512365934.2866        STREAM LEAKAGE =          41.9965
        UZF RECHARGE =   168578763.8543          UZF RECHARGE =           9.4563
               GW ET =           0.0000                 GW ET =           0.0000
     SURFACE LEAKAGE =           0.0000       SURFACE LEAKAGE =           0.0000

            TOTAL IN =   708437311.5659              TOTAL IN =          70.7803

          OUT:                                     OUT:
          ----                                     ----
             STORAGE =   159702442.8470               STORAGE =           7.4216
       CONSTANT HEAD =           0.0000         CONSTANT HEAD =           0.0000
               WELLS =   197227006.9867                 WELLS =          30.0000
     HEAD DEP BOUNDS =     3107747.2660       HEAD DEP BOUNDS =           0.2667
      STREAM LEAKAGE =   158078127.5380        STREAM LEAKAGE =          14.1084
        UZF RECHARGE =           0.0000          UZF RECHARGE =           0.0000
               GW ET =   190262486.0869                 GW ET =          18.9846
     SURFACE LEAKAGE =           0.0000       SURFACE LEAKAGE =           0.0000

           TOTAL OUT =   708377810.7246             TOTAL OUT =          70.7813

            IN - OUT =       59500.8413              IN - OUT =      -9.5967E-04

 PERCENT DISCREPANCY =           0.01     PERCENT DISCREPANCY =          -0.00


          TIME SUMMARY AT END OF TIME STEP    10 IN STRESS PERIOD      5
                    SECONDS     MINUTES      HOURS       DAYS        YEARS
                    -----------------------------------------------------------
   TIME STEP LENGTH 1.95033E+05  3250.6      54.176      2.2573     6.18023E-03
 STRESS PERIOD TIME 1.31823E+06  21971.      366.18      15.257     4.17723E-02
         TOTAL TIME 1.18302E+07 1.97171E+05  3286.2      136.92     0.37488    
 
 
 SOLVING FOR HEAD 
     7 ITERATIONS FOR TIME STEP  11 IN STRESS PERIOD    5

 MAXIMUM HEAD CHANGE FOR EACH ITERATION:

    HEAD CHANGE   HEAD CHANGE   HEAD CHANGE   HEAD CHANGE   HEAD CHANGE
  LAYER,ROW,COL LAYER,ROW,COL LAYER,ROW,COL LAYER,ROW,COL LAYER,ROW,COL
 ----------------------------------------------------------------------
    -0.1167       -0.5113E-01   -0.2026E-01   -0.9083E-02   -0.3910E-02
  (  1,  3,  6) (  1,  3,  6) (  1,  3,  5) (  1,  3,  5) (  1,  3,  5)
    -0.7827E-03   -0.1561E-03
  (  1,  3,  5) (  1,  3,  5)


 NO OUTPUT CONTROL FOR STRESS PERIOD      5   TIME STEP    11
 
 SOLVING FOR HEAD 
     7 ITERATIONS FOR TIME STEP  12 IN STRESS PERIOD    5

 MAXIMUM HEAD CHANGE FOR EACH ITERATION:

    HEAD CHANGE   HEAD CHANGE   HEAD CHANGE   HEAD CHANGE   HEAD CHANGE
  LAYER,ROW,COL LAYER,ROW,COL LAYER,ROW,COL LAYER,ROW,COL LAYER,ROW,COL
 ----------------------------------------------------------------------
    -0.1173       -0.4977E-01   -0.1983E-01   -0.7388E-02   -0.1476E-02
  (  1,  3,  6) (  1,  3,  6) (  1,  3,  5) (  1,  3,  5) (  1,  3,  5)
    -0.2956E-03   -0.5894E-04
  (  1,  3,  5) (  1,  3,  5)


 NO OUTPUT CONTROL FOR STRESS PERIOD      5   TIME STEP    12
 
 SOLVING FOR HEAD 
     7 ITERATIONS FOR TIME STEP  13 IN STRESS PERIOD    5

 MAXIMUM HEAD CHANGE FOR EACH ITERATION:

    HEAD CHANGE   HEAD CHANGE   HEAD CHANGE   HEAD CHANGE   HEAD CHANGE
  LAYER,ROW,COL LAYER,ROW,COL LAYER,ROW,COL LAYER,ROW,COL LAYER,ROW,COL
 ----------------------------------------------------------------------
    -0.1131       -0.5084E-01   -0.1852E-01   -0.8062E-02   -0.2499E-02
  (  1,  3,  6) (  1,  3,  6) (  1,  3,  5) (  1,  3,  5) (  1,  3,  5)
    -0.5008E-03   -0.9983E-04
  (  1,  3,  5) (  1,  3,  5)


 NO OUTPUT CONTROL FOR STRESS PERIOD      5   TIME STEP    13
 
 SOLVING FOR HEAD 
     9 ITERATIONS FOR TIME STEP  14 IN STRESS PERIOD    5

 MAXIMUM HEAD CHANGE FOR EACH ITERATION:

    HEAD CHANGE   HEAD CHANGE   HEAD CHANGE   HEAD CHANGE   HEAD CHANGE
  LAYER,ROW,COL LAYER,ROW,COL LAYER,ROW,COL LAYER,ROW,COL LAYER,ROW,COL
 ----------------------------------------------------------------------
    -0.1030       -0.4613E-01   -0.1826E-01   -0.6989E-02   -0.3006E-02
  (  1,  3,  6) (  1,  3,  6) (  1,  3,  6) (  1,  3,  5) (  1,  3,  5)
    -0.1296E-02   -0.5572E-03   -0.2399E-03   -0.1033E-03
  (  1,  3,  5) (  1,  3,  5) (  1,  3,  5) (  1,  3,  5)


 NO OUTPUT CONTROL FOR STRESS PERIOD      5   TIME STEP    14
 
 SOLVING FOR HEAD 
     9 ITERATIONS FOR TIME STEP  15 IN STRESS PERIOD    5

 MAXIMUM HEAD CHANGE FOR EACH ITERATION:

    HEAD CHANGE   HEAD CHANGE   HEAD CHANGE   HEAD CHANGE   HEAD CHANGE
  LAYER,ROW,COL LAYER,ROW,COL LAYER,ROW,COL LAYER,ROW,COL LAYER,ROW,COL
 ----------------------------------------------------------------------
    -0.8651E-01   -0.3848E-01   -0.1709E-01   -0.7569E-02   -0.3340E-02
  (  1,  3,  6) (  1,  3,  6) (  1,  3,  6) (  1,  3,  6) (  1,  3,  6)
    -0.1473E-02   -0.6496E-03   -0.2864E-03   -0.1262E-03
  (  1,  3,  6) (  1,  3,  6) (  1,  3,  6) (  1,  3,  6)


 OUTPUT CONTROL FOR STRESS PERIOD      5   TIME STEP    15
    PRINT BUDGET
    SAVE BUDGET

           WELLS   PERIOD 5   STEP 15
WELL          1   LAYER          1   ROW          6   COL          4   RATE -3.0
WELL          2   LAYER          1   ROW          6   COL          5   RATE -3.0
WELL          3   LAYER          1   ROW          7   COL          4   RATE -3.0
WELL          4   LAYER          1   ROW          7   COL          5   RATE -3.0
WELL          5   LAYER          1   ROW          8   COL          4   RATE -3.0
WELL          6   LAYER          1   ROW          8   COL          5   RATE -3.0
WELL          7   LAYER          1   ROW          9   COL          4   RATE -3.0
WELL          8   LAYER          1   ROW          9   COL          5   RATE -3.0
WELL          9   LAYER          1   ROW         10   COL          4   RATE -3.0
WELL         10   LAYER          1   ROW         10   COL          5   RATE -3.0

  HEAD DEP BOUNDS   PERIOD    5   STEP  15
 BOUNDARY      1   LAYER   1   ROW    13   COL     1   RATE   -0.266436       COND    0.380000E-01
 BOUNDARY      2   LAYER   1   ROW    14   COL     9   RATE    0.209012       COND    0.380000E-01



 STREAM LISTING     PERIOD      5   STEP       15

 LAYER ROW COL. STREAM  RCH.  FLOW INTO     FLOW TO   FLOW OUT OF   OVRLND.     DIRECT     STREAM       STREAM     STREAM     STREAM   STREAMBED  STREAMBED  STREAMBED
                SEG.NO.  NO.  STRM. RCH.    AQUIFER    STRM. RCH.    RUNOFF     PRECIP       ET          HEAD       DEPTH      WIDTH   CONDCTNC.   GRADIENT  ELEVATION

   1    1    1     1     1    2.5000E+01  1.0120E+00   2.3988E+01  0.000E+00  0.000E+00  0.000E+00  1.09422E+03  1.173E+00  1.296E+01  5.833E-01  5.784E-01  1.093E+03
   1    2    2     1     2    2.3988E+01  3.0446E+00   2.0943E+01  0.000E+00  0.000E+00  0.000E+00  1.08920E+03  1.141E+00  1.254E+01  8.780E-01  1.156E+00  1.088E+03
   1    3    3     1     3    2.0943E+01  2.9084E+00   1.8035E+01  0.000E+00  0.000E+00  0.000E+00  1.08351E+03  1.092E+00  1.185E+01  7.108E-01  1.364E+00  1.082E+03
   1    3    4     1     4    1.8035E+01  2.4706E+00   1.5564E+01  0.000E+00  0.000E+00  0.000E+00  1.07845E+03  1.046E+00  1.100E+01  6.107E-01  1.349E+00  1.077E+03
   1    4    5     2     1    5.5643E+00  2.6645E+00   2.8999E+00  0.000E+00  0.000E+00  0.000E+00  1.07235E+03  4.160E-01  1.200E+01  7.800E-01  1.139E+00  1.072E+03
   1    5    6     2     2    2.8999E+00  1.9554E+00   9.4441E-01  0.000E+00  0.000E+00  0.000E+00  1.06677E+03  2.591E-01  1.200E+01  6.000E-01  1.086E+00  1.067E+03
   1    6    6     2     3    9.4441E-01  9.4441E-01   0.0000E+00  0.000E+00  0.000E+00  0.000E+00  1.06181E+03  1.903E-02  1.200E+01  6.000E-01  1.006E+00  1.062E+03
   1    7    6     2     4    0.0000E+00  0.0000E+00   0.0000E+00  0.000E+00  0.000E+00  0.000E+00  1.05708E+03  0.000E+00  1.200E+01  6.000E-01  1.000E+00  1.057E+03
   1    8    6     2     5    0.0000E+00  0.0000E+00   0.0000E+00  0.000E+00  0.000E+00  0.000E+00  1.05236E+03  0.000E+00  1.200E+01  6.000E-01  1.000E+00  1.052E+03
   1    3    5     3     1    1.0000E+01  2.5320E+00   7.4680E+00  0.000E+00  0.000E+00  0.000E+00  1.07555E+03  1.909E+00  9.636E+00  7.227E-01  1.752E+00  1.074E+03
   1    3    6     3     2    7.4680E+00  1.2597E+00   6.2083E+00  0.000E+00  0.000E+00  0.000E+00  1.07264E+03  1.727E+00  8.909E+00  6.682E-01  9.426E-01  1.071E+03
   1    3    7     3     3    6.2083E+00  4.5340E-01   5.7549E+00  0.000E+00  0.000E+00  0.000E+00  1.06987E+03  1.555E+00  8.218E+00  5.547E-01  4.087E-01  1.068E+03
   1    4    8     3     4    5.7549E+00  1.5469E+00   4.2080E+00  0.000E+00  0.000E+00  0.000E+00  1.06682E+03  1.364E+00  7.455E+00  6.709E-01  1.153E+00  1.065E+03
   1    5    8     3     5    4.2080E+00  1.5789E+00   2.6290E+00  0.000E+00  0.000E+00  0.000E+00  1.06362E+03  1.164E+00  6.655E+00  4.991E-01  1.582E+00  1.062E+03
   1    6    8     3     6    2.6290E+00  5.5980E-01   2.0693E+00  0.000E+00  0.000E+00  0.000E+00  1.06158E+03  1.036E+00  6.145E+00  1.844E-01  1.518E+00  1.061E+03
   1    5   10     4     1    1.0000E+01  9.0525E-01   9.0947E+00  0.000E+00  0.000E+00  0.000E+00  1.07835E+03  6.210E-01  1.000E+01  2.500E-01  1.207E+00  1.078E+03
   1    5    9     4     2    9.0947E+00  1.7835E+00   7.3113E+00  0.000E+00  0.000E+00  0.000E+00  1.07148E+03  5.670E-01  1.000E+01  5.000E-01  1.189E+00  1.071E+03
   1    6    8     4     3    7.3113E+00  1.2257E+00   6.0855E+00  0.000E+00  0.000E+00  0.000E+00  1.06368E+03  5.021E-01  1.000E+01  3.500E-01  1.167E+00  1.063E+03
   1    6    8     5     1    8.1548E+00  1.0708E+00   7.0840E+00  0.000E+00  0.000E+00  0.000E+00  1.05861E+03  6.107E-01  1.285E+01  5.140E-01  6.943E-01  1.058E+03
   1    7    7     5     2    7.0840E+00  2.0010E+00   5.0831E+00  0.000E+00  0.000E+00  0.000E+00  1.05406E+03  5.644E-01  1.123E+01  5.614E-01  1.188E+00  1.054E+03
   1    8    7     5     3    5.0831E+00  1.1516E+00   3.9315E+00  0.000E+00  0.000E+00  0.000E+00  1.04976E+03  5.082E-01  9.379E+00  3.283E-01  1.169E+00  1.049E+03
   1    8    6     5     4    3.9315E+00  7.0802E-01   3.2234E+00  0.000E+00  0.000E+00  0.000E+00  1.04672E+03  4.687E-01  8.165E+00  2.041E-01  1.156E+00  1.046E+03
   1    9    6     6     1    3.2234E+00  1.9722E+00   1.2513E+00  0.000E+00  0.000E+00  0.000E+00  1.04301E+03  2.870E-01  1.200E+01  6.000E-01  1.096E+00  1.043E+03
   1   10    7     6     2    1.2513E+00  1.2513E+00   0.0000E+00  0.000E+00  0.000E+00  0.000E+00  1.03823E+03  4.556E-02  1.200E+01  6.000E-01  1.015E+00  1.038E+03
   1   11    7     6     3    0.0000E+00  0.0000E+00   0.0000E+00  0.000E+00  0.000E+00  0.000E+00  1.03364E+03  0.000E+00  1.200E+01  6.000E-01  1.000E+00  1.034E+03
   1   12    7     6     4    0.0000E+00  0.0000E+00   0.0000E+00  0.000E+00  0.000E+00  0.000E+00  1.02909E+03  0.000E+00  1.200E+01  6.000E-01  2.960E-01  1.029E+03
   1   13    7     6     5    0.0000E+00 -7.8989E-01   7.8989E-01  0.000E+00  0.000E+00  0.000E+00  1.02601E+03  1.014E-01  1.200E+01  2.400E-01 -1.097E+00  1.026E+03
   1   14    9     7     1    1.5000E+02  2.0510E+00   1.4795E+02  0.000E+00  0.000E+00  0.000E+00  1.03987E+03  2.286E+00  5.529E+01  5.592E+00  1.223E-01  1.038E+03
   1   13    8     7     2    1.4795E+02  2.9874E+00   1.4496E+02  0.000E+00  0.000E+00  0.000E+00  1.03477E+03  2.272E+00  5.523E+01  6.144E+00  1.621E-01  1.032E+03
   1   13    7     7     3    1.4496E+02  2.1001E+00   1.4286E+02  0.000E+00  0.000E+00  0.000E+00  1.02968E+03  2.259E+00  5.516E+01  5.579E+00  1.255E-01  1.027E+03
   1   13    6     8     1    1.4365E+02  4.7081E-01   1.4318E+02  0.000E+00  0.000E+00  0.000E+00  1.02464E+03  2.770E+00  4.016E+01  4.093E+00  3.835E-02  1.022E+03
   1   13    5     8     2    1.4318E+02 -2.1301E+00   1.4531E+02  0.000E+00  0.000E+00  0.000E+00  1.01840E+03  2.776E+00  4.025E+01  4.102E+00 -1.731E-01  1.016E+03
   1   13    4     8     3    1.4531E+02 -3.8409E+00   1.4915E+02  0.000E+00  0.000E+00  0.000E+00  1.01217E+03  2.797E+00  4.056E+01  4.133E+00 -3.098E-01  1.009E+03
   1   13    3     8     4    1.4915E+02 -4.1280E+00   1.5328E+02  0.000E+00  0.000E+00  0.000E+00  1.00595E+03  2.825E+00  4.097E+01  4.175E+00 -3.296E-01  1.003E+03
   1   13    2     8     5    1.5328E+02 -2.0868E+00   1.5537E+02  0.000E+00  0.000E+00  0.000E+00  9.99722E+02  2.847E+00  4.128E+01  4.207E+00 -1.654E-01  9.969E+02
   1   13    1     8     6    1.5537E+02 -7.0865E-01   1.5608E+02  0.000E+00  0.000E+00  0.000E+00  9.94732E+02  2.857E+00  4.142E+01  2.533E+00 -9.327E-02  9.919E+02



 UBDSV3 SAVING "           GW ET" ON UNIT 61 AT TIME STEP 15, STRESS PERIOD 5
 UBDSV3 SAVING "    UZF RECHARGE" ON UNIT 61 AT TIME STEP 15, STRESS PERIOD 5
 UBDSV3 SAVING " SURFACE LEAKAGE" ON UNIT 61 AT TIME STEP 15, STRESS PERIOD 5
 UBDSV3 SAVING "       HORT+DUNN" ON UNIT 61 AT TIME STEP 15, STRESS PERIOD 5
 UBDSV3 SAVING "  STORAGE CHANGE" ON UNIT 61 AT TIME STEP 15, STRESS PERIOD 5


UNSATURATED ZONE PACKAGE VOLUMETRIC BUDGET FOR  TIME STEP    15 STRESS PERIOD    5
  ------------------------------------------------------------------------------



     CUMULATIVE VOLUMES      L**3       RATES FOR THIS TIME STEP      L**3/T
     ------------------                 ------------------------

           IN:                                      IN:
           ---                                      ---
        INFILTRATION =     9.7998120E+8          INFILTRATION =           42.375

          OUT:                                     OUT:
          ----                                     ----
              UZF ET =     1.0857112E+9                UZF ET =       61.0507808
        UZF RECHARGE =     1.7943049E+8          UZF RECHARGE =        7.9738344

            IN - OUT =    -2.8516050E+8              IN - OUT =      -26.6496151

          STORAGE:                                 STORAGE:
          --------                                 --------
      STORAGE CHANGE =    -2.8495444E+8        STORAGE CHANGE =      -26.6492701

 PERCENT DISCREPANCY =          -0.00     PERCENT DISCREPANCY =          -0.00




 PERCENT DISCREPANCY IS DIFFERENCE BETWEEN IN-OUT MINUS CHANGE IN STORAGE
 DIVIDED BY THE AVERAGE OF IN AND OUT TIMES 100






  -------------------------------------------------------------------------------------
  VOLUMETRIC BUDGET FOR ENTIRE MODEL AT END OF TIME STEP   15 IN STRESS PERIOD      5
  -------------------------------------------------------------------------------------

     CUMULATIVE VOLUMES      L**3       RATES FOR THIS TIME STEP      L**3/T
     ------------------                 ------------------------

           IN:                                      IN:
           ---                                      ---
             STORAGE =    46440996.3482               STORAGE =          14.8227
       CONSTANT HEAD =           0.0000         CONSTANT HEAD =           0.0000
               WELLS =           0.0000                 WELLS =           0.0000
     HEAD DEP BOUNDS =     2744085.1867       HEAD DEP BOUNDS =           0.2090
      STREAM LEAKAGE =   567849942.1189        STREAM LEAKAGE =          42.6093
        UZF RECHARGE =   179430486.4474          UZF RECHARGE =           7.9738
               GW ET =           0.0000                 GW ET =           0.0000
     SURFACE LEAKAGE =           0.0000       SURFACE LEAKAGE =           0.0000

            TOTAL IN =   796465510.1012              TOTAL IN =          65.6149

          OUT:                                     OUT:
          ----                                     ----
             STORAGE =   165563327.8018               STORAGE =           3.2302
       CONSTANT HEAD =           0.0000         CONSTANT HEAD =           0.0000
               WELLS =   236520000.0000                 WELLS =          30.0000
     HEAD DEP BOUNDS =     3457162.2097       HEAD DEP BOUNDS =           0.2664
      STREAM LEAKAGE =   176188591.9125        STREAM LEAKAGE =          13.6844
        UZF RECHARGE =           0.0000          UZF RECHARGE =           0.0000
               GW ET =   214678541.0213                 GW ET =          18.4357
     SURFACE LEAKAGE =           0.0000       SURFACE LEAKAGE =           0.0000

           TOTAL OUT =   796407622.9453             TOTAL OUT =          65.6166

            IN - OUT =       57887.1559              IN - OUT =      -1.7410E-03

 PERCENT DISCREPANCY =           0.01     PERCENT DISCREPANCY =          -0.00


          TIME SUMMARY AT END OF TIME STEP    15 IN STRESS PERIOD      5
                    SECONDS     MINUTES      HOURS       DAYS        YEARS
                    -----------------------------------------------------------
   TIME STEP LENGTH 3.14103E+05  5235.0      87.251      3.6354     9.95332E-03
 STRESS PERIOD TIME 2.62800E+06  43800.      730.00      30.417     8.32763E-02
         TOTAL TIME 1.31400E+07 2.19000E+05  3650.0      152.08     0.41638    
 
1
                            STRESS PERIOD NO.      6, LENGTH =   2628000.    
                            -----------------------------------------------

                              NUMBER OF TIME STEPS =    15

                               MULTIPLIER FOR DELT =     1.100

                            INITIAL TIME STEP SIZE =   82713.09    

WEL PACKAGE WARNING: CURRENT STRESS PERIOD DOES NOT CONTAIN ANY WELLS


0 WELLS

 REUSING NON-PARAMETER GHB CELLS FROM LAST STRESS PERIOD

      2 GHB CELLS

 REUSING STREAM SEGMENT DATA FROM LAST STRESS PERIOD



            AREAL INFILTRATION RATE
 READING ON UNIT   19 WITH FORMAT: (10F4.0)            

            1           2           3           4           5           6           7           8           9          10
 ........................................................................................................................
   1   0.1000E-07  0.2000E-07   0.000       0.000       0.000       0.000       0.000       0.000       0.000       0.000    
   2   0.2000E-07  0.1000E-07  0.2000E-07   0.000       0.000      0.8000E-07  0.8000E-07  0.5000E-07   0.000       0.000    
   3    0.000      0.5000E-07  0.1000E-07  0.1000E-07  0.8000E-07  0.8000E-07  0.5000E-07  0.5000E-07   0.000       0.000    
   4   0.8000E-07  0.5000E-07  0.1000E-07  0.1000E-07  0.1000E-07  0.1000E-07  0.1000E-07  0.1000E-07  0.2000E-07   0.000    
   5   0.8000E-07  0.5000E-07  0.1000E-07  0.1000E-07  0.1000E-07  0.1000E-07  0.1000E-07  0.1000E-07  0.1000E-07  0.1000E-07
   6   0.8000E-07  0.5000E-07  0.5000E-07  0.2000E-07  0.2000E-07  0.1000E-07  0.1000E-07  0.1000E-07  0.1000E-07  0.5000E-07
   7   0.8000E-07  0.5000E-07  0.5000E-07  0.2000E-07  0.2000E-07  0.1000E-07  0.1000E-07  0.2000E-07  0.2000E-07   0.000    
   8    0.000      0.5000E-07  0.5000E-07  0.2000E-07  0.2000E-07  0.1000E-07  0.1000E-07  0.2000E-07  0.5000E-07   0.000    
   9    0.000      0.5000E-07  0.5000E-07  0.2000E-07  0.2000E-07  0.1000E-07  0.1000E-07  0.2000E-07  0.5000E-07   0.000    
  10    0.000      0.5000E-07  0.5000E-07  0.2000E-07  0.2000E-07  0.1000E-07  0.1000E-07  0.2000E-07  0.5000E-07  0.8000E-07
  11    0.000      0.1000E-07  0.1000E-07  0.1000E-07  0.1000E-07  0.1000E-07  0.1000E-07  0.2000E-07  0.5000E-07   0.000    
  12   0.1000E-07  0.1000E-07  0.1000E-07  0.1000E-07  0.1000E-07  0.1000E-07  0.1000E-07  0.1000E-07  0.2000E-07   0.000    
  13   0.1000E-07  0.1000E-07  0.2000E-07  0.2000E-07  0.2000E-07  0.2000E-07  0.2000E-07  0.1000E-07  0.1000E-07   0.000    
  14    0.000      0.2000E-07  0.5000E-07  0.5000E-07  0.5000E-07  0.5000E-07  0.5000E-07  0.2000E-07  0.1000E-07   0.000    
  15    0.000       0.000      0.8000E-07  0.8000E-07  0.8000E-07  0.8000E-07   0.000       0.000       0.000       0.000    

USING ET RATE FROM PREVIOUS STRESS PERIOD. CURRENT PERIOD IS:       6

 USING ET EXTINCTION DEPTH FROM PREVIOUS STRESS PERIOD. CURRENT PERIOD IS:       6

 USING EXTINCTION WATER CONTENT FROM PREVIOUS STRESS PERIOD. CURRENT PERIOD IS:       6
 
 SOLVING FOR HEAD 

     7 ITERATIONS FOR TIME STEP   1 IN STRESS PERIOD    6

 MAXIMUM HEAD CHANGE FOR EACH ITERATION:

    HEAD CHANGE   HEAD CHANGE   HEAD CHANGE   HEAD CHANGE   HEAD CHANGE
  LAYER,ROW,COL LAYER,ROW,COL LAYER,ROW,COL LAYER,ROW,COL LAYER,ROW,COL
 ----------------------------------------------------------------------
     0.2992E-01   -0.8565E-02   -0.3987E-02   -0.1855E-02   -0.8633E-03
  (  1,  6,  5) (  1,  3,  6) (  1,  3,  6) (  1,  3,  6) (  1,  3,  6)
    -0.4017E-03   -0.1869E-03
  (  1,  3,  6) (  1,  3,  6)


 NO OUTPUT CONTROL FOR STRESS PERIOD      6   TIME STEP     1
 
 SOLVING FOR HEAD 
     7 ITERATIONS FOR TIME STEP   2 IN STRESS PERIOD    6

 MAXIMUM HEAD CHANGE FOR EACH ITERATION:

    HEAD CHANGE   HEAD CHANGE   HEAD CHANGE   HEAD CHANGE   HEAD CHANGE
  LAYER,ROW,COL LAYER,ROW,COL LAYER,ROW,COL LAYER,ROW,COL LAYER,ROW,COL
 ----------------------------------------------------------------------
     0.3177E-01   -0.8909E-02   -0.4138E-02   -0.1922E-02   -0.8926E-03
  (  1,  6,  5) (  1,  3,  6) (  1,  3,  6) (  1,  3,  6) (  1,  3,  6)
    -0.4145E-03   -0.1924E-03
  (  1,  3,  6) (  1,  3,  6)


 NO OUTPUT CONTROL FOR STRESS PERIOD      6   TIME STEP     2
 
 SOLVING FOR HEAD 
     7 ITERATIONS FOR TIME STEP   3 IN STRESS PERIOD    6

 MAXIMUM HEAD CHANGE FOR EACH ITERATION:

    HEAD CHANGE   HEAD CHANGE   HEAD CHANGE   HEAD CHANGE   HEAD CHANGE
  LAYER,ROW,COL LAYER,ROW,COL LAYER,ROW,COL LAYER,ROW,COL LAYER,ROW,COL
 ----------------------------------------------------------------------
     0.3365E-01   -0.9225E-02   -0.4276E-02   -0.1982E-02   -0.9184E-03
  (  1,  6,  5) (  1,  3,  6) (  1,  3,  6) (  1,  3,  6) (  1,  3,  6)
    -0.4255E-03   -0.1971E-03
  (  1,  3,  6) (  1,  3,  6)


 NO OUTPUT CONTROL FOR STRESS PERIOD      6   TIME STEP     3
 
 SOLVING FOR HEAD 
     7 ITERATIONS FOR TIME STEP   4 IN STRESS PERIOD    6

 MAXIMUM HEAD CHANGE FOR EACH ITERATION:

    HEAD CHANGE   HEAD CHANGE   HEAD CHANGE   HEAD CHANGE   HEAD CHANGE
  LAYER,ROW,COL LAYER,ROW,COL LAYER,ROW,COL LAYER,ROW,COL LAYER,ROW,COL
 ----------------------------------------------------------------------
     0.3557E-01   -0.9468E-02   -0.4376E-02   -0.2022E-02   -0.9345E-03
  (  1,  6,  5) (  1,  3,  6) (  1,  3,  6) (  1,  3,  6) (  1,  3,  6)
    -0.4317E-03   -0.1994E-03
  (  1,  3,  6) (  1,  3,  6)


 NO OUTPUT CONTROL FOR STRESS PERIOD      6   TIME STEP     4
 
 SOLVING FOR HEAD 
     8 ITERATIONS FOR TIME STEP   5 IN STRESS PERIOD    6

 MAXIMUM HEAD CHANGE FOR EACH ITERATION:

    HEAD CHANGE   HEAD CHANGE   HEAD CHANGE   HEAD CHANGE   HEAD CHANGE
  LAYER,ROW,COL LAYER,ROW,COL LAYER,ROW,COL LAYER,ROW,COL LAYER,ROW,COL
 ----------------------------------------------------------------------
     0.3752E-01   -0.9674E-02   -0.4457E-02   -0.2053E-02   -0.9458E-03
  (  1,  6,  5) (  1,  3,  6) (  1,  3,  6) (  1,  3,  6) (  1,  3,  6)
    -0.4356E-03   -0.2006E-03   -0.9233E-04
  (  1,  3,  6) (  1,  3,  6) (  1,  3,  6)


 OUTPUT CONTROL FOR STRESS PERIOD      6   TIME STEP     5
    PRINT BUDGET
    SAVE BUDGET

  HEAD DEP BOUNDS   PERIOD    6   STEP   5
 BOUNDARY      1   LAYER   1   ROW    13   COL     1   RATE   -0.265898       COND    0.380000E-01
 BOUNDARY      2   LAYER   1   ROW    14   COL     9   RATE    0.209022       COND    0.380000E-01



 STREAM LISTING     PERIOD      6   STEP        5

 LAYER ROW COL. STREAM  RCH.  FLOW INTO     FLOW TO   FLOW OUT OF   OVRLND.     DIRECT     STREAM       STREAM     STREAM     STREAM   STREAMBED  STREAMBED  STREAMBED
                SEG.NO.  NO.  STRM. RCH.    AQUIFER    STRM. RCH.    RUNOFF     PRECIP       ET          HEAD       DEPTH      WIDTH   CONDCTNC.   GRADIENT  ELEVATION

   1    1    1     1     1    2.5000E+01  1.0167E+00   2.3983E+01  0.000E+00  0.000E+00  0.000E+00  1.09422E+03  1.173E+00  1.296E+01  5.832E-01  5.811E-01  1.093E+03
   1    2    2     1     2    2.3983E+01  3.0499E+00   2.0933E+01  0.000E+00  0.000E+00  0.000E+00  1.08920E+03  1.141E+00  1.254E+01  8.779E-01  1.158E+00  1.088E+03
   1    3    3     1     3    2.0933E+01  2.9076E+00   1.8026E+01  0.000E+00  0.000E+00  0.000E+00  1.08351E+03  1.092E+00  1.184E+01  7.106E-01  1.364E+00  1.082E+03
   1    3    4     1     4    1.8026E+01  2.4699E+00   1.5556E+01  0.000E+00  0.000E+00  0.000E+00  1.07845E+03  1.046E+00  1.100E+01  6.105E-01  1.349E+00  1.077E+03
   1    4    5     2     1    5.5560E+00  2.6641E+00   2.8919E+00  0.000E+00  0.000E+00  0.000E+00  1.07235E+03  4.155E-01  1.200E+01  7.800E-01  1.139E+00  1.072E+03
   1    5    6     2     2    2.8919E+00  1.9551E+00   9.3681E-01  0.000E+00  0.000E+00  0.000E+00  1.06677E+03  2.584E-01  1.200E+01  6.000E-01  1.086E+00  1.067E+03
   1    6    6     2     3    9.3681E-01  9.3681E-01   0.0000E+00  0.000E+00  0.000E+00  0.000E+00  1.06181E+03  1.894E-02  1.200E+01  6.000E-01  1.006E+00  1.062E+03
   1    7    6     2     4    0.0000E+00  0.0000E+00   0.0000E+00  0.000E+00  0.000E+00  0.000E+00  1.05708E+03  0.000E+00  1.200E+01  6.000E-01  1.000E+00  1.057E+03
   1    8    6     2     5    0.0000E+00  0.0000E+00   0.0000E+00  0.000E+00  0.000E+00  0.000E+00  1.05236E+03  0.000E+00  1.200E+01  6.000E-01  1.000E+00  1.052E+03
   1    3    5     3     1    1.0000E+01  2.6543E+00   7.3457E+00  0.000E+00  0.000E+00  0.000E+00  1.07555E+03  1.909E+00  9.636E+00  7.227E-01  1.836E+00  1.074E+03
   1    3    6     3     2    7.3457E+00  1.3824E+00   5.9633E+00  0.000E+00  0.000E+00  0.000E+00  1.07264E+03  1.727E+00  8.909E+00  6.682E-01  1.034E+00  1.071E+03
   1    3    7     3     3    5.9633E+00  5.3555E-01   5.4277E+00  0.000E+00  0.000E+00  0.000E+00  1.06987E+03  1.555E+00  8.218E+00  5.547E-01  4.827E-01  1.068E+03
   1    4    8     3     4    5.4277E+00  1.5397E+00   3.8880E+00  0.000E+00  0.000E+00  0.000E+00  1.06682E+03  1.364E+00  7.455E+00  6.709E-01  1.148E+00  1.065E+03
   1    5    8     3     5    3.8880E+00  1.5789E+00   2.3091E+00  0.000E+00  0.000E+00  0.000E+00  1.06362E+03  1.164E+00  6.655E+00  4.991E-01  1.582E+00  1.062E+03
   1    6    8     3     6    2.3091E+00  5.5980E-01   1.7493E+00  0.000E+00  0.000E+00  0.000E+00  1.06158E+03  1.036E+00  6.145E+00  1.844E-01  1.518E+00  1.061E+03
   1    5   10     4     1    1.0000E+01  9.0525E-01   9.0947E+00  0.000E+00  0.000E+00  0.000E+00  1.07835E+03  6.210E-01  1.000E+01  2.500E-01  1.207E+00  1.078E+03
   1    5    9     4     2    9.0947E+00  1.7835E+00   7.3113E+00  0.000E+00  0.000E+00  0.000E+00  1.07148E+03  5.670E-01  1.000E+01  5.000E-01  1.189E+00  1.071E+03
   1    6    8     4     3    7.3113E+00  1.2257E+00   6.0855E+00  0.000E+00  0.000E+00  0.000E+00  1.06368E+03  5.021E-01  1.000E+01  3.500E-01  1.167E+00  1.063E+03
   1    6    8     5     1    7.8348E+00  1.0411E+00   6.7937E+00  0.000E+00  0.000E+00  0.000E+00  1.05860E+03  6.020E-01  1.254E+01  5.016E-01  6.919E-01  1.058E+03
   1    7    7     5     2    6.7937E+00  1.9441E+00   4.8496E+00  0.000E+00  0.000E+00  0.000E+00  1.05406E+03  5.558E-01  1.093E+01  5.467E-01  1.185E+00  1.054E+03
   1    8    7     5     3    4.8496E+00  1.1155E+00   3.7341E+00  0.000E+00  0.000E+00  0.000E+00  1.04975E+03  4.995E-01  9.107E+00  3.187E-01  1.167E+00  1.049E+03
   1    8    6     5     4    3.7341E+00  6.8406E-01   3.0501E+00  0.000E+00  0.000E+00  0.000E+00  1.04671E+03  4.600E-01  7.908E+00  1.977E-01  1.153E+00  1.046E+03
   1    9    6     6     1    3.0501E+00  1.9642E+00   1.0858E+00  0.000E+00  0.000E+00  0.000E+00  1.04300E+03  2.737E-01  1.200E+01  6.000E-01  1.091E+00  1.043E+03
   1   10    7     6     2    1.0858E+00  1.0858E+00   0.0000E+00  0.000E+00  0.000E+00  0.000E+00  1.03822E+03  4.184E-02  1.200E+01  6.000E-01  1.014E+00  1.038E+03
   1   11    7     6     3    0.0000E+00  0.0000E+00   0.0000E+00  0.000E+00  0.000E+00  0.000E+00  1.03364E+03  0.000E+00  1.200E+01  6.000E-01  1.000E+00  1.034E+03
   1   12    7     6     4    0.0000E+00  0.0000E+00   0.0000E+00  0.000E+00  0.000E+00  0.000E+00  1.02909E+03  0.000E+00  1.200E+01  6.000E-01  2.943E-01  1.029E+03
   1   13    7     6     5    0.0000E+00 -7.8565E-01   7.8565E-01  0.000E+00  0.000E+00  0.000E+00  1.02601E+03  1.010E-01  1.200E+01  2.400E-01 -1.091E+00  1.026E+03
   1   14    9     7     1    1.5000E+02  2.0526E+00   1.4795E+02  0.000E+00  0.000E+00  0.000E+00  1.03987E+03  2.286E+00  5.529E+01  5.592E+00  1.223E-01  1.038E+03
   1   13    8     7     2    1.4795E+02  2.9924E+00   1.4495E+02  0.000E+00  0.000E+00  0.000E+00  1.03477E+03  2.272E+00  5.523E+01  6.144E+00  1.624E-01  1.032E+03
   1   13    7     7     3    1.4495E+02  2.1987E+00   1.4276E+02  0.000E+00  0.000E+00  0.000E+00  1.02968E+03  2.258E+00  5.516E+01  5.579E+00  1.314E-01  1.027E+03
   1   13    6     8     1    1.4354E+02  5.5584E-01   1.4299E+02  0.000E+00  0.000E+00  0.000E+00  1.02464E+03  2.769E+00  4.015E+01  4.091E+00  4.529E-02  1.022E+03
   1   13    5     8     2    1.4299E+02 -2.1044E+00   1.4509E+02  0.000E+00  0.000E+00  0.000E+00  1.01840E+03  2.774E+00  4.023E+01  4.099E+00 -1.711E-01  1.016E+03
   1   13    4     8     3    1.4509E+02 -3.8251E+00   1.4892E+02  0.000E+00  0.000E+00  0.000E+00  1.01217E+03  2.796E+00  4.054E+01  4.131E+00 -3.087E-01  1.009E+03
   1   13    3     8     4    1.4892E+02 -4.1093E+00   1.5302E+02  0.000E+00  0.000E+00  0.000E+00  1.00595E+03  2.824E+00  4.094E+01  4.172E+00 -3.283E-01  1.003E+03
   1   13    2     8     5    1.5302E+02 -2.0831E+00   1.5511E+02  0.000E+00  0.000E+00  0.000E+00  9.99720E+02  2.845E+00  4.126E+01  4.204E+00 -1.652E-01  9.969E+02
   1   13    1     8     6    1.5511E+02 -6.7714E-01   1.5579E+02  0.000E+00  0.000E+00  0.000E+00  9.94730E+02  2.855E+00  4.139E+01  2.531E+00 -8.918E-02  9.919E+02



 UBDSV3 SAVING "           GW ET" ON UNIT 61 AT TIME STEP 5, STRESS PERIOD 6
 UBDSV3 SAVING "    UZF RECHARGE" ON UNIT 61 AT TIME STEP 5, STRESS PERIOD 6
 UBDSV3 SAVING " SURFACE LEAKAGE" ON UNIT 61 AT TIME STEP 5, STRESS PERIOD 6
 UBDSV3 SAVING "       HORT+DUNN" ON UNIT 61 AT TIME STEP 5, STRESS PERIOD 6
 UBDSV3 SAVING "  STORAGE CHANGE" ON UNIT 61 AT TIME STEP 5, STRESS PERIOD 6


UNSATURATED ZONE PACKAGE VOLUMETRIC BUDGET FOR  TIME STEP     5 STRESS PERIOD    6
  ------------------------------------------------------------------------------



     CUMULATIVE VOLUMES      L**3       RATES FOR THIS TIME STEP      L**3/T
     ------------------                 ------------------------

           IN:                                      IN:
           ---                                      ---
        INFILTRATION =     1.0227775E+9          INFILTRATION =            84.75

          OUT:                                     OUT:
          ----                                     ----
              UZF ET =     1.1173167E+9                UZF ET =       63.2760045
        UZF RECHARGE =     1.8358088E+8          UZF RECHARGE =        8.3721656

            IN - OUT =    -2.7812007E+8              IN - OUT =       13.1018299

          STORAGE:                                 STORAGE:
          --------                                 --------
      STORAGE CHANGE =    -2.7791402E+8        STORAGE CHANGE =       13.1018299

 PERCENT DISCREPANCY =          -0.00     PERCENT DISCREPANCY =           0.00




 PERCENT DISCREPANCY IS DIFFERENCE BETWEEN IN-OUT MINUS CHANGE IN STORAGE
 DIVIDED BY THE AVERAGE OF IN AND OUT TIMES 100






  -------------------------------------------------------------------------------------
  VOLUMETRIC BUDGET FOR ENTIRE MODEL AT END OF TIME STEP    5 IN STRESS PERIOD      6
  -------------------------------------------------------------------------------------

     CUMULATIVE VOLUMES      L**3       RATES FOR THIS TIME STEP      L**3/T
     ------------------                 ------------------------

           IN:                                      IN:
           ---                                      ---
             STORAGE =    48539720.2307               STORAGE =           3.5450
       CONSTANT HEAD =           0.0000         CONSTANT HEAD =           0.0000
               WELLS =           0.0000                 WELLS =           0.0000
     HEAD DEP BOUNDS =     2849634.1804       HEAD DEP BOUNDS =           0.2090
      STREAM LEAKAGE =   589427476.6162        STREAM LEAKAGE =          42.7995
        UZF RECHARGE =   183580882.6892          UZF RECHARGE =           8.3722
               GW ET =           0.0000                 GW ET =           0.0000
     SURFACE LEAKAGE =           0.0000       SURFACE LEAKAGE =           0.0000

            TOTAL IN =   824397713.7165              TOTAL IN =          54.9257

          OUT:                                     OUT:
          ----                                     ----
             STORAGE =   177233905.7520               STORAGE =          22.8098
       CONSTANT HEAD =           0.0000         CONSTANT HEAD =           0.0000
               WELLS =   236520000.0000                 WELLS =           0.0000
     HEAD DEP BOUNDS =     3591540.7047       HEAD DEP BOUNDS =           0.2659
      STREAM LEAKAGE =   183066713.7822        STREAM LEAKAGE =          13.5847
        UZF RECHARGE =           0.0000          UZF RECHARGE =           0.0000
               GW ET =   223930736.4256                 GW ET =          18.2680
     SURFACE LEAKAGE =           0.0000       SURFACE LEAKAGE =           0.0000

           TOTAL OUT =   824342896.6645             TOTAL OUT =          54.9284

            IN - OUT =       54817.0520              IN - OUT =      -2.6152E-03

 PERCENT DISCREPANCY =           0.01     PERCENT DISCREPANCY =          -0.00


          TIME SUMMARY AT END OF TIME STEP     5 IN STRESS PERIOD      6
                    SECONDS     MINUTES      HOURS       DAYS        YEARS
                    -----------------------------------------------------------
   TIME STEP LENGTH 1.21100E+05  2018.3      33.639      1.4016     3.83743E-03
 STRESS PERIOD TIME 5.04972E+05  8416.2      140.27      5.8446     1.60016E-02
         TOTAL TIME 1.36450E+07 2.27416E+05  3790.3      157.93     0.43238    
 
 
 SOLVING FOR HEAD 
     7 ITERATIONS FOR TIME STEP   6 IN STRESS PERIOD    6

 MAXIMUM HEAD CHANGE FOR EACH ITERATION:

    HEAD CHANGE   HEAD CHANGE   HEAD CHANGE   HEAD CHANGE   HEAD CHANGE
  LAYER,ROW,COL LAYER,ROW,COL LAYER,ROW,COL LAYER,ROW,COL LAYER,ROW,COL
 ----------------------------------------------------------------------
     0.4023E-01   -0.9782E-02   -0.4489E-02   -0.2060E-02   -0.9450E-03
  (  1,  9,  5) (  1,  3,  6) (  1,  3,  6) (  1,  3,  6) (  1,  3,  6)
    -0.4334E-03   -0.1987E-03
  (  1,  3,  6) (  1,  3,  6)


 NO OUTPUT CONTROL FOR STRESS PERIOD      6   TIME STEP     6
 
 SOLVING FOR HEAD 
     7 ITERATIONS FOR TIME STEP   7 IN STRESS PERIOD    6

 MAXIMUM HEAD CHANGE FOR EACH ITERATION:

    HEAD CHANGE   HEAD CHANGE   HEAD CHANGE   HEAD CHANGE   HEAD CHANGE
  LAYER,ROW,COL LAYER,ROW,COL LAYER,ROW,COL LAYER,ROW,COL LAYER,ROW,COL
 ----------------------------------------------------------------------
     0.4311E-01   -0.9849E-02   -0.4500E-02   -0.2056E-02   -0.9389E-03
  (  1,  9,  5) (  1,  3,  6) (  1,  3,  6) (  1,  3,  6) (  1,  3,  6)
    -0.4287E-03   -0.1957E-03
  (  1,  3,  6) (  1,  3,  6)


 NO OUTPUT CONTROL FOR STRESS PERIOD      6   TIME STEP     7
 
 SOLVING FOR HEAD 
     7 ITERATIONS FOR TIME STEP   8 IN STRESS PERIOD    6

 MAXIMUM HEAD CHANGE FOR EACH ITERATION:

    HEAD CHANGE   HEAD CHANGE   HEAD CHANGE   HEAD CHANGE   HEAD CHANGE
  LAYER,ROW,COL LAYER,ROW,COL LAYER,ROW,COL LAYER,ROW,COL LAYER,ROW,COL
 ----------------------------------------------------------------------
     0.4687E-01    0.1440E-01    0.4634E-02   -0.2037E-02   -0.9254E-03
  (  1,  7,  4) (  1,  6,  5) (  1,  6,  5) (  1,  3,  6) (  1,  3,  6)
    -0.4203E-03   -0.1908E-03
  (  1,  3,  6) (  1,  3,  6)


 NO OUTPUT CONTROL FOR STRESS PERIOD      6   TIME STEP     8
 
 SOLVING FOR HEAD 
     7 ITERATIONS FOR TIME STEP   9 IN STRESS PERIOD    6

 MAXIMUM HEAD CHANGE FOR EACH ITERATION:

    HEAD CHANGE   HEAD CHANGE   HEAD CHANGE   HEAD CHANGE   HEAD CHANGE
  LAYER,ROW,COL LAYER,ROW,COL LAYER,ROW,COL LAYER,ROW,COL LAYER,ROW,COL
 ----------------------------------------------------------------------
     0.5098E-01    0.1626E-01    0.5269E-02   -0.2003E-02   -0.9069E-03
  (  1,  7,  4) (  1,  9,  5) (  1,  9,  5) (  1,  3,  6) (  1,  3,  6)
    -0.4104E-03   -0.1857E-03
  (  1,  3,  6) (  1,  3,  6)


 NO OUTPUT CONTROL FOR STRESS PERIOD      6   TIME STEP     9
 
 SOLVING FOR HEAD 
     7 ITERATIONS FOR TIME STEP  10 IN STRESS PERIOD    6

 MAXIMUM HEAD CHANGE FOR EACH ITERATION:

    HEAD CHANGE   HEAD CHANGE   HEAD CHANGE   HEAD CHANGE   HEAD CHANGE
  LAYER,ROW,COL LAYER,ROW,COL LAYER,ROW,COL LAYER,ROW,COL LAYER,ROW,COL
 ----------------------------------------------------------------------
     0.5587E-01    0.1770E-01    0.5858E-02    0.1937E-02   -0.6523E-03
  (  1,  7,  4) (  1,  7,  5) (  1,  7,  5) (  1,  7,  5) (  1,  3,  5)
    -0.2871E-03   -0.1262E-03
  (  1,  3,  5) (  1,  3,  5)


 OUTPUT CONTROL FOR STRESS PERIOD      6   TIME STEP    10
    PRINT BUDGET
    SAVE BUDGET

  HEAD DEP BOUNDS   PERIOD    6   STEP  10
 BOUNDARY      1   LAYER   1   ROW    13   COL     1   RATE   -0.265144       COND    0.380000E-01
 BOUNDARY      2   LAYER   1   ROW    14   COL     9   RATE    0.209017       COND    0.380000E-01



 STREAM LISTING     PERIOD      6   STEP       10

 LAYER ROW COL. STREAM  RCH.  FLOW INTO     FLOW TO   FLOW OUT OF   OVRLND.     DIRECT     STREAM       STREAM     STREAM     STREAM   STREAMBED  STREAMBED  STREAMBED
                SEG.NO.  NO.  STRM. RCH.    AQUIFER    STRM. RCH.    RUNOFF     PRECIP       ET          HEAD       DEPTH      WIDTH   CONDCTNC.   GRADIENT  ELEVATION

   1    1    1     1     1    2.5000E+01  1.0233E+00   2.3977E+01  0.000E+00  0.000E+00  0.000E+00  1.09422E+03  1.173E+00  1.296E+01  5.832E-01  5.849E-01  1.093E+03
   1    2    2     1     2    2.3977E+01  3.0558E+00   2.0921E+01  0.000E+00  0.000E+00  0.000E+00  1.08920E+03  1.141E+00  1.254E+01  8.777E-01  1.161E+00  1.088E+03
   1    3    3     1     3    2.0921E+01  2.9066E+00   1.8014E+01  0.000E+00  0.000E+00  0.000E+00  1.08351E+03  1.091E+00  1.184E+01  7.104E-01  1.364E+00  1.082E+03
   1    3    4     1     4    1.8014E+01  2.4690E+00   1.5545E+01  0.000E+00  0.000E+00  0.000E+00  1.07845E+03  1.045E+00  1.100E+01  6.103E-01  1.348E+00  1.077E+03
   1    4    5     2     1    5.5454E+00  2.6636E+00   2.8818E+00  0.000E+00  0.000E+00  0.000E+00  1.07235E+03  4.149E-01  1.200E+01  7.800E-01  1.138E+00  1.072E+03
   1    5    6     2     2    2.8818E+00  1.9546E+00   9.2719E-01  0.000E+00  0.000E+00  0.000E+00  1.06677E+03  2.576E-01  1.200E+01  6.000E-01  1.086E+00  1.067E+03
   1    6    6     2     3    9.2719E-01  9.2719E-01   0.0000E+00  0.000E+00  0.000E+00  0.000E+00  1.06180E+03  9.410E-03  1.200E+01  6.000E-01  1.003E+00  1.062E+03
   1    7    6     2     4    0.0000E+00  0.0000E+00   0.0000E+00  0.000E+00  0.000E+00  0.000E+00  1.05708E+03  0.000E+00  1.200E+01  6.000E-01  1.000E+00  1.057E+03
   1    8    6     2     5    0.0000E+00  0.0000E+00   0.0000E+00  0.000E+00  0.000E+00  0.000E+00  1.05236E+03  0.000E+00  1.200E+01  6.000E-01  1.000E+00  1.052E+03
   1    3    5     3     1    1.0000E+01  2.7742E+00   7.2258E+00  0.000E+00  0.000E+00  0.000E+00  1.07555E+03  1.909E+00  9.636E+00  7.227E-01  1.919E+00  1.074E+03
   1    3    6     3     2    7.2258E+00  1.4922E+00   5.7336E+00  0.000E+00  0.000E+00  0.000E+00  1.07264E+03  1.727E+00  8.909E+00  6.682E-01  1.117E+00  1.071E+03
   1    3    7     3     3    5.7336E+00  6.3050E-01   5.1031E+00  0.000E+00  0.000E+00  0.000E+00  1.06987E+03  1.555E+00  8.218E+00  5.547E-01  5.683E-01  1.068E+03
   1    4    8     3     4    5.1031E+00  1.5297E+00   3.5734E+00  0.000E+00  0.000E+00  0.000E+00  1.06682E+03  1.364E+00  7.455E+00  6.709E-01  1.140E+00  1.065E+03
   1    5    8     3     5    3.5734E+00  1.5789E+00   1.9945E+00  0.000E+00  0.000E+00  0.000E+00  1.06362E+03  1.164E+00  6.655E+00  4.991E-01  1.582E+00  1.062E+03
   1    6    8     3     6    1.9945E+00  5.5980E-01   1.4347E+00  0.000E+00  0.000E+00  0.000E+00  1.06158E+03  1.036E+00  6.145E+00  1.844E-01  1.518E+00  1.061E+03
   1    5   10     4     1    1.0000E+01  9.0525E-01   9.0947E+00  0.000E+00  0.000E+00  0.000E+00  1.07835E+03  6.210E-01  1.000E+01  2.500E-01  1.207E+00  1.078E+03
   1    5    9     4     2    9.0947E+00  1.7835E+00   7.3113E+00  0.000E+00  0.000E+00  0.000E+00  1.07148E+03  5.670E-01  1.000E+01  5.000E-01  1.189E+00  1.071E+03
   1    6    8     4     3    7.3113E+00  1.2257E+00   6.0855E+00  0.000E+00  0.000E+00  0.000E+00  1.06368E+03  5.021E-01  1.000E+01  3.500E-01  1.167E+00  1.063E+03
   1    6    8     5     1    7.5202E+00  1.0113E+00   6.5089E+00  0.000E+00  0.000E+00  0.000E+00  1.05859E+03  5.932E-01  1.223E+01  4.892E-01  6.892E-01  1.058E+03
   1    7    7     5     2    6.5089E+00  1.8876E+00   4.6212E+00  0.000E+00  0.000E+00  0.000E+00  1.05405E+03  5.471E-01  1.064E+01  5.322E-01  1.182E+00  1.054E+03
   1    8    7     5     3    4.6212E+00  1.0796E+00   3.5416E+00  0.000E+00  0.000E+00  0.000E+00  1.04974E+03  4.908E-01  8.837E+00  3.093E-01  1.164E+00  1.049E+03
   1    8    6     5     4    3.5416E+00  6.6031E-01   2.8813E+00  0.000E+00  0.000E+00  0.000E+00  1.04670E+03  4.513E-01  7.653E+00  1.913E-01  1.150E+00  1.046E+03
   1    9    6     6     1    2.8813E+00  1.9563E+00   9.2504E-01  0.000E+00  0.000E+00  0.000E+00  1.04299E+03  2.604E-01  1.200E+01  6.000E-01  1.087E+00  1.043E+03
   1   10    7     6     2    9.2504E-01  9.2504E-01   0.0000E+00  0.000E+00  0.000E+00  0.000E+00  1.03819E+03  9.503E-03  1.200E+01  6.000E-01  1.003E+00  1.038E+03
   1   11    7     6     3    0.0000E+00  0.0000E+00   0.0000E+00  0.000E+00  0.000E+00  0.000E+00  1.03364E+03  0.000E+00  1.200E+01  6.000E-01  1.000E+00  1.034E+03
   1   12    7     6     4    0.0000E+00  0.0000E+00   0.0000E+00  0.000E+00  0.000E+00  0.000E+00  1.02909E+03  0.000E+00  1.200E+01  6.000E-01  2.924E-01  1.029E+03
   1   13    7     6     5    0.0000E+00 -7.8159E-01   7.8159E-01  0.000E+00  0.000E+00  0.000E+00  1.02601E+03  1.007E-01  1.200E+01  2.400E-01 -1.086E+00  1.026E+03
   1   14    9     7     1    1.5000E+02  2.0517E+00   1.4795E+02  0.000E+00  0.000E+00  0.000E+00  1.03987E+03  2.286E+00  5.529E+01  5.592E+00  1.223E-01  1.038E+03
   1   13    8     7     2    1.4795E+02  2.9979E+00   1.4495E+02  0.000E+00  0.000E+00  0.000E+00  1.03477E+03  2.272E+00  5.523E+01  6.144E+00  1.626E-01  1.032E+03
   1   13    7     7     3    1.4495E+02  2.2932E+00   1.4266E+02  0.000E+00  0.000E+00  0.000E+00  1.02968E+03  2.258E+00  5.516E+01  5.578E+00  1.370E-01  1.027E+03
   1   13    6     8     1    1.4344E+02  6.3595E-01   1.4280E+02  0.000E+00  0.000E+00  0.000E+00  1.02464E+03  2.768E+00  4.013E+01  4.090E+00  5.184E-02  1.022E+03
   1   13    5     8     2    1.4280E+02 -2.1818E+00   1.4498E+02  0.000E+00  0.000E+00  0.000E+00  1.01840E+03  2.773E+00  4.021E+01  4.098E+00 -1.775E-01  1.016E+03
   1   13    4     8     3    1.4498E+02 -3.9329E+00   1.4892E+02  0.000E+00  0.000E+00  0.000E+00  1.01217E+03  2.795E+00  4.053E+01  4.130E+00 -3.174E-01  1.009E+03
   1   13    3     8     4    1.4892E+02 -4.2032E+00   1.5312E+02  0.000E+00  0.000E+00  0.000E+00  1.00595E+03  2.824E+00  4.095E+01  4.173E+00 -3.358E-01  1.003E+03
   1   13    2     8     5    1.5312E+02 -2.0758E+00   1.5520E+02  0.000E+00  0.000E+00  0.000E+00  9.99721E+02  2.846E+00  4.127E+01  4.205E+00 -1.646E-01  9.969E+02
   1   13    1     8     6    1.5520E+02 -6.2592E-01   1.5582E+02  0.000E+00  0.000E+00  0.000E+00  9.94730E+02  2.855E+00  4.140E+01  2.531E+00 -8.242E-02  9.919E+02



 UBDSV3 SAVING "           GW ET" ON UNIT 61 AT TIME STEP 10, STRESS PERIOD 6
 UBDSV3 SAVING "    UZF RECHARGE" ON UNIT 61 AT TIME STEP 10, STRESS PERIOD 6
 UBDSV3 SAVING " SURFACE LEAKAGE" ON UNIT 61 AT TIME STEP 10, STRESS PERIOD 6
 UBDSV3 SAVING "       HORT+DUNN" ON UNIT 61 AT TIME STEP 10, STRESS PERIOD 6
 UBDSV3 SAVING "  STORAGE CHANGE" ON UNIT 61 AT TIME STEP 10, STRESS PERIOD 6


UNSATURATED ZONE PACKAGE VOLUMETRIC BUDGET FOR  TIME STEP    10 STRESS PERIOD    6
  ------------------------------------------------------------------------------



     CUMULATIVE VOLUMES      L**3       RATES FOR THIS TIME STEP      L**3/T
     ------------------                 ------------------------

           IN:                                      IN:
           ---                                      ---
        INFILTRATION =     1.0917015E+9          INFILTRATION =            84.75

          OUT:                                     OUT:
          ----                                     ----
              UZF ET =     1.1698637E+9                UZF ET =       65.3730181
        UZF RECHARGE =     1.9222199E+8          UZF RECHARGE =       12.9980208

            IN - OUT =    -2.7038415E+8              IN - OUT =        6.3789611

          STORAGE:                                 STORAGE:
          --------                                 --------
      STORAGE CHANGE =    -2.7020999E+8        STORAGE CHANGE =        6.3029121

 PERCENT DISCREPANCY =          -0.00     PERCENT DISCREPANCY =           0.09




 PERCENT DISCREPANCY IS DIFFERENCE BETWEEN IN-OUT MINUS CHANGE IN STORAGE
 DIVIDED BY THE AVERAGE OF IN AND OUT TIMES 100






  -------------------------------------------------------------------------------------
  VOLUMETRIC BUDGET FOR ENTIRE MODEL AT END OF TIME STEP   10 IN STRESS PERIOD      6
  -------------------------------------------------------------------------------------

     CUMULATIVE VOLUMES      L**3       RATES FOR THIS TIME STEP      L**3/T
     ------------------                 ------------------------

           IN:                                      IN:
           ---                                      ---
             STORAGE =    50664942.3200               STORAGE =           1.8410
       CONSTANT HEAD =           0.0000         CONSTANT HEAD =           0.0000
               WELLS =           0.0000                 WELLS =           0.0000
     HEAD DEP BOUNDS =     3019622.1625       HEAD DEP BOUNDS =           0.2090
      STREAM LEAKAGE =   624330332.6785        STREAM LEAKAGE =          42.9789
        UZF RECHARGE =   192221992.2096          UZF RECHARGE =          12.9980
               GW ET =           0.0000                 GW ET =           0.0000
     SURFACE LEAKAGE =           0.0000       SURFACE LEAKAGE =           0.0000

            TOTAL IN =   870236889.3706              TOTAL IN =          58.0269

          OUT:                                     OUT:
          ----                                     ----
             STORAGE =   196927910.7066               STORAGE =          25.8258
       CONSTANT HEAD =           0.0000         CONSTANT HEAD =           0.0000
               WELLS =   236520000.0000                 WELLS =           0.0000
     HEAD DEP BOUNDS =     3807403.9438       HEAD DEP BOUNDS =           0.2651
      STREAM LEAKAGE =   194213928.5133        STREAM LEAKAGE =          13.8013
        UZF RECHARGE =           0.0000          UZF RECHARGE =           0.0000
               GW ET =   238712408.9264                 GW ET =          18.1286
     SURFACE LEAKAGE =           0.0000       SURFACE LEAKAGE =           0.0000

           TOTAL OUT =   870181652.0901             TOTAL OUT =          58.0208

            IN - OUT =       55237.2805              IN - OUT =       6.1298E-03

 PERCENT DISCREPANCY =           0.01     PERCENT DISCREPANCY =           0.01


          TIME SUMMARY AT END OF TIME STEP    10 IN STRESS PERIOD      6
                    SECONDS     MINUTES      HOURS       DAYS        YEARS
                    -----------------------------------------------------------
   TIME STEP LENGTH 1.95033E+05  3250.6      54.176      2.2573     6.18023E-03
 STRESS PERIOD TIME 1.31823E+06  21971.      366.18      15.257     4.17723E-02
         TOTAL TIME 1.44582E+07 2.40971E+05  4016.2      167.34     0.45815    
 
 
 SOLVING FOR HEAD 
    10 ITERATIONS FOR TIME STEP  11 IN STRESS PERIOD    6

 MAXIMUM HEAD CHANGE FOR EACH ITERATION:

    HEAD CHANGE   HEAD CHANGE   HEAD CHANGE   HEAD CHANGE   HEAD CHANGE
  LAYER,ROW,COL LAYER,ROW,COL LAYER,ROW,COL LAYER,ROW,COL LAYER,ROW,COL
 ----------------------------------------------------------------------
     0.6218E-01    0.2083E-01    0.1103E-01    0.5842E-02    0.3093E-02
  (  1,  9,  4) (  1,  3,  6) (  1,  3,  6) (  1,  3,  6) (  1,  3,  6)
     0.1638E-02    0.8667E-03    0.4587E-03    0.2427E-03    0.1285E-03
  (  1,  3,  6) (  1,  3,  6) (  1,  3,  6) (  1,  3,  6) (  1,  3,  6)


 NO OUTPUT CONTROL FOR STRESS PERIOD      6   TIME STEP    11
 
 SOLVING FOR HEAD 
    10 ITERATIONS FOR TIME STEP  12 IN STRESS PERIOD    6

 MAXIMUM HEAD CHANGE FOR EACH ITERATION:

    HEAD CHANGE   HEAD CHANGE   HEAD CHANGE   HEAD CHANGE   HEAD CHANGE
  LAYER,ROW,COL LAYER,ROW,COL LAYER,ROW,COL LAYER,ROW,COL LAYER,ROW,COL
 ----------------------------------------------------------------------
     0.6706E-01    0.2543E-01    0.1324E-01    0.6905E-02    0.3595E-02
  (  1,  8,  4) (  1,  3,  5) (  1,  3,  5) (  1,  3,  5) (  1,  3,  5)
     0.1876E-02    0.9771E-03    0.5097E-03    0.2655E-03    0.1386E-03
  (  1,  3,  5) (  1,  3,  5) (  1,  3,  5) (  1,  3,  5) (  1,  3,  5)


 NO OUTPUT CONTROL FOR STRESS PERIOD      6   TIME STEP    12
 
 SOLVING FOR HEAD 
    10 ITERATIONS FOR TIME STEP  13 IN STRESS PERIOD    6

 MAXIMUM HEAD CHANGE FOR EACH ITERATION:

    HEAD CHANGE   HEAD CHANGE   HEAD CHANGE   HEAD CHANGE   HEAD CHANGE
  LAYER,ROW,COL LAYER,ROW,COL LAYER,ROW,COL LAYER,ROW,COL LAYER,ROW,COL
 ----------------------------------------------------------------------
     0.7236E-01    0.2423E-01    0.1128E-01    0.5818E-02    0.3011E-02
  (  1,  8,  4) (  1,  8,  4) (  1,  3,  5) (  1,  3,  5) (  1,  3,  5)
     0.1565E-02    0.8111E-03    0.4213E-03    0.2184E-03    0.1135E-03
  (  1,  3,  5) (  1,  3,  5) (  1,  3,  5) (  1,  3,  5) (  1,  3,  5)


 NO OUTPUT CONTROL FOR STRESS PERIOD      6   TIME STEP    13
 
 SOLVING FOR HEAD 
     9 ITERATIONS FOR TIME STEP  14 IN STRESS PERIOD    6

 MAXIMUM HEAD CHANGE FOR EACH ITERATION:

    HEAD CHANGE   HEAD CHANGE   HEAD CHANGE   HEAD CHANGE   HEAD CHANGE
  LAYER,ROW,COL LAYER,ROW,COL LAYER,ROW,COL LAYER,ROW,COL LAYER,ROW,COL
 ----------------------------------------------------------------------
     0.7784E-01    0.2606E-01    0.1032E-01    0.5319E-02    0.2735E-02
  (  1,  8,  4) (  1,  8,  4) (  1,  3,  5) (  1,  3,  5) (  1,  3,  5)
     0.1411E-02    0.7262E-03    0.3745E-03    0.1927E-03
  (  1,  3,  5) (  1,  3,  5) (  1,  3,  5) (  1,  3,  5)


 NO OUTPUT CONTROL FOR STRESS PERIOD      6   TIME STEP    14
 
 SOLVING FOR HEAD 
    13 ITERATIONS FOR TIME STEP  15 IN STRESS PERIOD    6

 MAXIMUM HEAD CHANGE FOR EACH ITERATION:

    HEAD CHANGE   HEAD CHANGE   HEAD CHANGE   HEAD CHANGE   HEAD CHANGE
  LAYER,ROW,COL LAYER,ROW,COL LAYER,ROW,COL LAYER,ROW,COL LAYER,ROW,COL
 ----------------------------------------------------------------------
     0.1386        0.7757E-01    0.4341E-01    0.2429E-01    0.1345E-01
  (  1,  2,  6) (  1,  2,  6) (  1,  2,  6) (  1,  2,  6) (  1,  2,  6)
     0.7437E-02    0.4113E-02    0.2274E-02    0.1257E-02    0.6952E-03
  (  1,  2,  6) (  1,  2,  6) (  1,  2,  6) (  1,  2,  6) (  1,  2,  6)
     0.3845E-03    0.2126E-03    0.1175E-03
  (  1,  2,  6) (  1,  2,  6) (  1,  2,  6)


 OUTPUT CONTROL FOR STRESS PERIOD      6   TIME STEP    15
    PRINT BUDGET
    PRINT HEAD FOR ALL LAYERS
    SAVE HEAD FOR ALL LAYERS
    SAVE BUDGET

  HEAD DEP BOUNDS   PERIOD    6   STEP  15
 BOUNDARY      1   LAYER   1   ROW    13   COL     1   RATE   -0.264309       COND    0.380000E-01
 BOUNDARY      2   LAYER   1   ROW    14   COL     9   RATE    0.208996       COND    0.380000E-01



 STREAM LISTING     PERIOD      6   STEP       15

 LAYER ROW COL. STREAM  RCH.  FLOW INTO     FLOW TO   FLOW OUT OF   OVRLND.     DIRECT     STREAM       STREAM     STREAM     STREAM   STREAMBED  STREAMBED  STREAMBED
                SEG.NO.  NO.  STRM. RCH.    AQUIFER    STRM. RCH.    RUNOFF     PRECIP       ET          HEAD       DEPTH      WIDTH   CONDCTNC.   GRADIENT  ELEVATION

   1    1    1     1     1    2.5000E+01  1.0319E+00   2.3968E+01  0.000E+00  0.000E+00  0.000E+00  1.09422E+03  1.172E+00  1.296E+01  5.832E-01  5.899E-01  1.093E+03
   1    2    2     1     2    2.3968E+01  3.0613E+00   2.0907E+01  0.000E+00  0.000E+00  0.000E+00  1.08920E+03  1.141E+00  1.254E+01  8.775E-01  1.163E+00  1.088E+03
   1    3    3     1     3    2.0907E+01  2.9054E+00   1.8001E+01  0.000E+00  0.000E+00  0.000E+00  1.08351E+03  1.091E+00  1.184E+01  7.102E-01  1.364E+00  1.082E+03
   1    3    4     1     4    1.8001E+01  2.4679E+00   1.5533E+01  0.000E+00  0.000E+00  0.000E+00  1.07845E+03  1.045E+00  1.099E+01  6.101E-01  1.348E+00  1.077E+03
   1    4    5     2     1    5.5335E+00  2.6631E+00   2.8704E+00  0.000E+00  0.000E+00  0.000E+00  1.07235E+03  4.142E-01  1.200E+01  7.800E-01  1.138E+00  1.072E+03
   1    5    6     2     2    2.8704E+00  1.9540E+00   9.1636E-01  0.000E+00  0.000E+00  0.000E+00  1.06677E+03  2.567E-01  1.200E+01  6.000E-01  1.086E+00  1.067E+03
   1    6    6     2     3    9.1636E-01  9.1636E-01   0.0000E+00  0.000E+00  0.000E+00  0.000E+00  1.06180E+03  9.343E-03  1.200E+01  6.000E-01  1.003E+00  1.062E+03
   1    7    6     2     4    0.0000E+00  0.0000E+00   0.0000E+00  0.000E+00  0.000E+00  0.000E+00  1.05708E+03  0.000E+00  1.200E+01  6.000E-01  1.000E+00  1.057E+03
   1    8    6     2     5    0.0000E+00  0.0000E+00   0.0000E+00  0.000E+00  0.000E+00  0.000E+00  1.05236E+03  0.000E+00  1.200E+01  6.000E-01  1.000E+00  1.052E+03
   1    3    5     3     1    1.0000E+01  2.5231E+00   7.4769E+00  0.000E+00  0.000E+00  0.000E+00  1.07555E+03  1.909E+00  9.636E+00  7.227E-01  1.746E+00  1.074E+03
   1    3    6     3     2    7.4769E+00  1.2492E+00   6.2278E+00  0.000E+00  0.000E+00  0.000E+00  1.07264E+03  1.727E+00  8.909E+00  6.682E-01  9.347E-01  1.071E+03
   1    3    7     3     3    6.2278E+00  5.3037E-01   5.6974E+00  0.000E+00  0.000E+00  0.000E+00  1.06987E+03  1.555E+00  8.218E+00  5.547E-01  4.780E-01  1.068E+03
   1    4    8     3     4    5.6974E+00  1.5172E+00   4.1802E+00  0.000E+00  0.000E+00  0.000E+00  1.06682E+03  1.364E+00  7.455E+00  6.709E-01  1.131E+00  1.065E+03
   1    5    8     3     5    4.1802E+00  1.5789E+00   2.6012E+00  0.000E+00  0.000E+00  0.000E+00  1.06362E+03  1.164E+00  6.655E+00  4.991E-01  1.582E+00  1.062E+03
   1    6    8     3     6    2.6012E+00  5.5980E-01   2.0414E+00  0.000E+00  0.000E+00  0.000E+00  1.06158E+03  1.036E+00  6.145E+00  1.844E-01  1.518E+00  1.061E+03
   1    5   10     4     1    1.0000E+01  9.0525E-01   9.0947E+00  0.000E+00  0.000E+00  0.000E+00  1.07835E+03  6.210E-01  1.000E+01  2.500E-01  1.207E+00  1.078E+03
   1    5    9     4     2    9.0947E+00  1.7835E+00   7.3113E+00  0.000E+00  0.000E+00  0.000E+00  1.07148E+03  5.670E-01  1.000E+01  5.000E-01  1.189E+00  1.071E+03
   1    6    8     4     3    7.3113E+00  1.2257E+00   6.0855E+00  0.000E+00  0.000E+00  0.000E+00  1.06368E+03  5.021E-01  1.000E+01  3.500E-01  1.167E+00  1.063E+03
   1    6    8     5     1    8.1270E+00  1.0617E+00   7.0653E+00  0.000E+00  0.000E+00  0.000E+00  1.05861E+03  6.100E-01  1.283E+01  5.131E-01  6.897E-01  1.058E+03
   1    7    7     5     2    7.0653E+00  1.9973E+00   5.0680E+00  0.000E+00  0.000E+00  0.000E+00  1.05406E+03  5.638E-01  1.121E+01  5.604E-01  1.188E+00  1.054E+03
   1    8    7     5     3    5.0680E+00  1.1492E+00   3.9188E+00  0.000E+00  0.000E+00  0.000E+00  1.04976E+03  5.076E-01  9.361E+00  3.276E-01  1.169E+00  1.049E+03
   1    8    6     5     4    3.9188E+00  7.0647E-01   3.2123E+00  0.000E+00  0.000E+00  0.000E+00  1.04672E+03  4.681E-01  8.148E+00  2.037E-01  1.156E+00  1.046E+03
   1    9    6     6     1    3.2123E+00  1.9717E+00   1.2406E+00  0.000E+00  0.000E+00  0.000E+00  1.04301E+03  2.861E-01  1.200E+01  6.000E-01  1.095E+00  1.043E+03
   1   10    7     6     2    1.2406E+00  1.2406E+00   0.0000E+00  0.000E+00  0.000E+00  0.000E+00  1.03823E+03  4.532E-02  1.200E+01  6.000E-01  1.015E+00  1.038E+03
   1   11    7     6     3    0.0000E+00  0.0000E+00   0.0000E+00  0.000E+00  0.000E+00  0.000E+00  1.03364E+03  0.000E+00  1.200E+01  6.000E-01  1.000E+00  1.034E+03
   1   12    7     6     4    0.0000E+00  0.0000E+00   0.0000E+00  0.000E+00  0.000E+00  0.000E+00  1.02909E+03  0.000E+00  1.200E+01  6.000E-01  2.906E-01  1.029E+03
   1   13    7     6     5    0.0000E+00 -7.7833E-01   7.7833E-01  0.000E+00  0.000E+00  0.000E+00  1.02601E+03  1.005E-01  1.200E+01  2.400E-01 -1.081E+00  1.026E+03
   1   14    9     7     1    1.5000E+02  2.0487E+00   1.4795E+02  0.000E+00  0.000E+00  0.000E+00  1.03987E+03  2.286E+00  5.529E+01  5.592E+00  1.221E-01  1.038E+03
   1   13    8     7     2    1.4795E+02  3.0012E+00   1.4495E+02  0.000E+00  0.000E+00  0.000E+00  1.03477E+03  2.272E+00  5.523E+01  6.144E+00  1.628E-01  1.032E+03
   1   13    7     7     3    1.4495E+02  2.3693E+00   1.4258E+02  0.000E+00  0.000E+00  0.000E+00  1.02968E+03  2.258E+00  5.516E+01  5.578E+00  1.416E-01  1.027E+03
   1   13    6     8     1    1.4336E+02  6.8926E-01   1.4267E+02  0.000E+00  0.000E+00  0.000E+00  1.02464E+03  2.767E+00  4.012E+01  4.088E+00  5.620E-02  1.022E+03
   1   13    5     8     2    1.4267E+02 -2.2311E+00   1.4490E+02  0.000E+00  0.000E+00  0.000E+00  1.01840E+03  2.772E+00  4.020E+01  4.097E+00 -1.815E-01  1.016E+03
   1   13    4     8     3    1.4490E+02 -3.9837E+00   1.4888E+02  0.000E+00  0.000E+00  0.000E+00  1.01217E+03  2.795E+00  4.052E+01  4.130E+00 -3.216E-01  1.009E+03
   1   13    3     8     4    1.4888E+02 -4.2642E+00   1.5315E+02  0.000E+00  0.000E+00  0.000E+00  1.00595E+03  2.824E+00  4.095E+01  4.173E+00 -3.406E-01  1.003E+03
   1   13    2     8     5    1.5315E+02 -2.0803E+00   1.5523E+02  0.000E+00  0.000E+00  0.000E+00  9.99721E+02  2.846E+00  4.127E+01  4.205E+00 -1.649E-01  9.969E+02
   1   13    1     8     6    1.5523E+02 -5.7024E-01   1.5580E+02  0.000E+00  0.000E+00  0.000E+00  9.94730E+02  2.855E+00  4.140E+01  2.531E+00 -7.509E-02  9.919E+02



 UBDSV3 SAVING "           GW ET" ON UNIT 61 AT TIME STEP 15, STRESS PERIOD 6
 UBDSV3 SAVING "    UZF RECHARGE" ON UNIT 61 AT TIME STEP 15, STRESS PERIOD 6
 UBDSV3 SAVING " SURFACE LEAKAGE" ON UNIT 61 AT TIME STEP 15, STRESS PERIOD 6
 UBDSV3 SAVING "       HORT+DUNN" ON UNIT 61 AT TIME STEP 15, STRESS PERIOD 6
 UBDSV3 SAVING "  STORAGE CHANGE" ON UNIT 61 AT TIME STEP 15, STRESS PERIOD 6


UNSATURATED ZONE PACKAGE VOLUMETRIC BUDGET FOR  TIME STEP    15 STRESS PERIOD    6
  ------------------------------------------------------------------------------



     CUMULATIVE VOLUMES      L**3       RATES FOR THIS TIME STEP      L**3/T
     ------------------                 ------------------------

           IN:                                      IN:
           ---                                      ---
        INFILTRATION =     1.2027042E+9          INFILTRATION =            84.75

          OUT:                                     OUT:
          ----                                     ----
              UZF ET =     1.2573605E+9                UZF ET =       67.6009675
        UZF RECHARGE =     2.1469150E+8          UZF RECHARGE =       18.8466082

            IN - OUT =    -2.6934777E+8              IN - OUT =       -1.6975757

          STORAGE:                                 STORAGE:
          --------                                 --------
      STORAGE CHANGE =    -2.6916334E+8        STORAGE CHANGE =       -1.6664588

 PERCENT DISCREPANCY =          -0.00     PERCENT DISCREPANCY =          -0.04




 PERCENT DISCREPANCY IS DIFFERENCE BETWEEN IN-OUT MINUS CHANGE IN STORAGE
 DIVIDED BY THE AVERAGE OF IN AND OUT TIMES 100



1
              HEAD IN LAYER   1 AT END OF TIME STEP  15 IN STRESS PERIOD    6
  ---------------------------------------------------------------------------

           1       2       3       4       5       6       7       8       9      10
 ...................................................................................
   1  1092.45 1088.68 6999.00 6999.00 6999.00 6999.00 6999.00 6999.00 6999.00 6999.00
   2  1089.14 1085.71 1079.19 6999.00 6999.00 1072.43 1071.25 1070.48 6999.00 6999.00
   3  6999.00 1077.42 1074.39 1070.29 1072.05 1070.77 1068.92 1068.15 6999.00 6999.00
   4  1067.83 1068.38 1066.68 1063.18 1062.10 1060.86 1061.65 1064.56 1063.82 6999.00
   5  1063.68 1061.29 1058.66 1056.66 1056.45 1057.13 1057.12 1059.35 1062.90 1065.34
   6  1059.00 1055.35 1052.20 1050.54 1050.92 1052.48 1053.97 1056.54 1059.38 1063.66
   7  1055.34 1049.69 1046.32 1044.84 1045.56 1047.47 1050.21 1052.70 1054.14 6999.00
   8  6999.00 1042.34 1040.26 1039.26 1040.26 1042.39 1044.48 1047.12 1049.14 6999.00
   9  6999.00 1035.39 1034.28 1033.93 1035.25 1037.53 1038.69 1040.63 1043.72 6999.00
  10  6999.00 1028.37 1028.35 1029.11 1030.66 1032.66 1034.31 1036.19 1039.99 1044.38
  11  6999.00 1019.63 1021.15 1024.46 1026.55 1028.77 1030.45 1032.79 1036.27 6999.00
  12  1001.18 1008.84 1014.04 1018.81 1022.46 1025.75 1028.22 1031.09 1034.86 6999.00
  13   994.96 1000.22 1006.97 1013.13 1018.94 1024.47 1029.25 1034.28 1036.43 6999.00
  14  6999.00 1005.82 1011.53 1016.25 1021.28 1026.08 1030.38 1035.32 1039.50 6999.00
  15  6999.00 6999.00 1018.84 1021.83 1025.57 1028.55 6999.00 6999.00 6999.00 6999.00

 HEAD WILL BE SAVED ON UNIT   58 AT END OF TIME STEP    15 IN STRESS PERIOD      6



  -------------------------------------------------------------------------------------
  VOLUMETRIC BUDGET FOR ENTIRE MODEL AT END OF TIME STEP   15 IN STRESS PERIOD      6
  -------------------------------------------------------------------------------------

     CUMULATIVE VOLUMES      L**3       RATES FOR THIS TIME STEP      L**3/T
     ------------------                 ------------------------

           IN:                                      IN:
           ---                                      ---
             STORAGE =    51360419.3363               STORAGE =           0.4085
       CONSTANT HEAD =           0.0000         CONSTANT HEAD =           0.0000
               WELLS =           0.0000                 WELLS =           0.0000
     HEAD DEP BOUNDS =     3293368.7619       HEAD DEP BOUNDS =           0.2090
      STREAM LEAKAGE =   680738796.1929        STREAM LEAKAGE =          43.1084
        UZF RECHARGE =   214691501.2579          UZF RECHARGE =          18.8466
               GW ET =           0.0000                 GW ET =           0.0000
     SURFACE LEAKAGE =           0.0000       SURFACE LEAKAGE =           0.0000

            TOTAL IN =   950084085.5490              TOTAL IN =          62.5725

          OUT:                                     OUT:
          ----                                     ----
             STORAGE =   234485688.4093               STORAGE =          30.2386
       CONSTANT HEAD =           0.0000         CONSTANT HEAD =           0.0000
               WELLS =   236520000.0000                 WELLS =           0.0000
     HEAD DEP BOUNDS =     4153981.1374       HEAD DEP BOUNDS =           0.2643
      STREAM LEAKAGE =   212396100.8589        STREAM LEAKAGE =          13.9078
        UZF RECHARGE =           0.0000          UZF RECHARGE =           0.0000
               GW ET =   262469758.7724                 GW ET =          18.1609
     SURFACE LEAKAGE =           0.0000       SURFACE LEAKAGE =           0.0000

           TOTAL OUT =   950025529.1780             TOTAL OUT =          62.5716

            IN - OUT =       58556.3710              IN - OUT =       8.9687E-04

 PERCENT DISCREPANCY =           0.01     PERCENT DISCREPANCY =           0.00


          TIME SUMMARY AT END OF TIME STEP    15 IN STRESS PERIOD      6
                    SECONDS     MINUTES      HOURS       DAYS        YEARS
                    -----------------------------------------------------------
   TIME STEP LENGTH 3.14103E+05  5235.0      87.251      3.6354     9.95332E-03
 STRESS PERIOD TIME 2.62800E+06  43800.      730.00      30.417     8.32763E-02
         TOTAL TIME 1.57680E+07 2.62800E+05  4380.0      182.50     0.49966    
 
1
                            STRESS PERIOD NO.      7, LENGTH =   2628000.    
                            -----------------------------------------------

                              NUMBER OF TIME STEPS =    15

                               MULTIPLIER FOR DELT =     1.100

                            INITIAL TIME STEP SIZE =   82713.09    

 WEL PACKAGE STRESS PERIOD INFORMATION [BEFORE APPLICATION OF TABFILES]

 WELL NO.  LAYER   ROW   COL   STRESS RATE         
 --------------------------------------------------
      1      1      6      4  -2.0000000    
      2      1      6      5  -2.0000000    
      3      1      7      4  -2.0000000    
      4      1      7      5  -2.0000000    
      5      1      8      4  -2.0000000    
      6      1      8      5  -2.0000000    
      7      1      9      4  -2.0000000    
      8      1      9      5  -2.0000000    
      9      1     10      4  -2.0000000    
     10      1     10      5  -2.0000000    

10 WELLS

 REUSING NON-PARAMETER GHB CELLS FROM LAST STRESS PERIOD

      2 GHB CELLS

 REUSING STREAM SEGMENT DATA FROM LAST STRESS PERIOD



            AREAL INFILTRATION RATE
 READING ON UNIT   19 WITH FORMAT: (10F4.0)            

            1           2           3           4           5           6           7           8           9          10
 ........................................................................................................................
   1   0.3000E-08  0.6000E-08   0.000       0.000       0.000       0.000       0.000       0.000       0.000       0.000    
   2   0.6000E-08  0.3000E-08  0.6000E-08   0.000       0.000      0.2400E-07  0.2400E-07  0.1500E-07   0.000       0.000    
   3    0.000      0.1500E-07  0.3000E-08  0.3000E-08  0.2400E-07  0.2400E-07  0.1500E-07  0.1500E-07   0.000       0.000    
   4   0.2400E-07  0.1500E-07  0.3000E-08  0.3000E-08  0.3000E-08  0.3000E-08  0.3000E-08  0.3000E-08  0.6000E-08   0.000    
   5   0.2400E-07  0.1500E-07  0.3000E-08  0.3000E-08  0.3000E-08  0.3000E-08  0.3000E-08  0.3000E-08  0.3000E-08  0.3000E-08
   6   0.2400E-07  0.1500E-07  0.1500E-07  0.6000E-08  0.6000E-08  0.3000E-08  0.3000E-08  0.3000E-08  0.3000E-08  0.1500E-07
   7   0.2400E-07  0.1500E-07  0.1500E-07  0.6000E-08  0.6000E-08  0.3000E-08  0.3000E-08  0.6000E-08  0.6000E-08   0.000    
   8    0.000      0.1500E-07  0.1500E-07  0.6000E-08  0.6000E-08  0.3000E-08  0.3000E-08  0.6000E-08  0.1500E-07   0.000    
   9    0.000      0.1500E-07  0.1500E-07  0.6000E-08  0.6000E-08  0.3000E-08  0.3000E-08  0.6000E-08  0.1500E-07   0.000    
  10    0.000      0.1500E-07  0.1500E-07  0.6000E-08  0.6000E-08  0.3000E-08  0.3000E-08  0.6000E-08  0.1500E-07  0.2400E-07
  11    0.000      0.3000E-08  0.3000E-08  0.3000E-08  0.3000E-08  0.3000E-08  0.3000E-08  0.6000E-08  0.1500E-07   0.000    
  12   0.3000E-08  0.3000E-08  0.3000E-08  0.3000E-08  0.3000E-08  0.3000E-08  0.3000E-08  0.3000E-08  0.6000E-08   0.000    
  13   0.3000E-08  0.3000E-08  0.6000E-08  0.6000E-08  0.6000E-08  0.6000E-08  0.6000E-08  0.3000E-08  0.3000E-08   0.000    
  14    0.000      0.6000E-08  0.1500E-07  0.1500E-07  0.1500E-07  0.1500E-07  0.1500E-07  0.6000E-08  0.3000E-08   0.000    
  15    0.000       0.000      0.2400E-07  0.2400E-07  0.2400E-07  0.2400E-07   0.000       0.000       0.000       0.000    

USING ET RATE FROM PREVIOUS STRESS PERIOD. CURRENT PERIOD IS:       7

 USING ET EXTINCTION DEPTH FROM PREVIOUS STRESS PERIOD. CURRENT PERIOD IS:       7

 USING EXTINCTION WATER CONTENT FROM PREVIOUS STRESS PERIOD. CURRENT PERIOD IS:       7
 
 SOLVING FOR HEAD 

    10 ITERATIONS FOR TIME STEP   1 IN STRESS PERIOD    7

 MAXIMUM HEAD CHANGE FOR EACH ITERATION:

    HEAD CHANGE   HEAD CHANGE   HEAD CHANGE   HEAD CHANGE   HEAD CHANGE
  LAYER,ROW,COL LAYER,ROW,COL LAYER,ROW,COL LAYER,ROW,COL LAYER,ROW,COL
 ----------------------------------------------------------------------
     0.3333E-01    0.1855E-01    0.1032E-01    0.5742E-02    0.3195E-02
  (  1,  2,  7) (  1,  2,  7) (  1,  2,  7) (  1,  2,  7) (  1,  2,  7)
     0.1778E-02    0.9891E-03    0.5503E-03    0.3062E-03    0.1704E-03
  (  1,  2,  7) (  1,  2,  7) (  1,  2,  7) (  1,  2,  7) (  1,  2,  7)


 NO OUTPUT CONTROL FOR STRESS PERIOD      7   TIME STEP     1
 
 SOLVING FOR HEAD 
    10 ITERATIONS FOR TIME STEP   2 IN STRESS PERIOD    7

 MAXIMUM HEAD CHANGE FOR EACH ITERATION:

    HEAD CHANGE   HEAD CHANGE   HEAD CHANGE   HEAD CHANGE   HEAD CHANGE
  LAYER,ROW,COL LAYER,ROW,COL LAYER,ROW,COL LAYER,ROW,COL LAYER,ROW,COL
 ----------------------------------------------------------------------
     0.3823E-01    0.2116E-01    0.1171E-01    0.6482E-02    0.3587E-02
  (  1,  2,  7) (  1,  2,  7) (  1,  2,  7) (  1,  2,  7) (  1,  2,  7)
     0.1985E-02    0.1099E-02    0.6079E-03    0.3364E-03    0.1862E-03
  (  1,  2,  7) (  1,  2,  7) (  1,  2,  7) (  1,  2,  7) (  1,  2,  7)


 NO OUTPUT CONTROL FOR STRESS PERIOD      7   TIME STEP     2
 
 SOLVING FOR HEAD 
    10 ITERATIONS FOR TIME STEP   3 IN STRESS PERIOD    7

 MAXIMUM HEAD CHANGE FOR EACH ITERATION:

    HEAD CHANGE   HEAD CHANGE   HEAD CHANGE   HEAD CHANGE   HEAD CHANGE
  LAYER,ROW,COL LAYER,ROW,COL LAYER,ROW,COL LAYER,ROW,COL LAYER,ROW,COL
 ----------------------------------------------------------------------
     0.4107E-01    0.2261E-01    0.1245E-01    0.6852E-02    0.3772E-02
  (  1,  2,  7) (  1,  2,  7) (  1,  2,  7) (  1,  2,  7) (  1,  2,  7)
     0.2076E-02    0.1143E-02    0.6291E-03    0.3463E-03    0.1906E-03
  (  1,  2,  7) (  1,  2,  7) (  1,  2,  7) (  1,  2,  7) (  1,  2,  7)


 NO OUTPUT CONTROL FOR STRESS PERIOD      7   TIME STEP     3
 
 SOLVING FOR HEAD 
    10 ITERATIONS FOR TIME STEP   4 IN STRESS PERIOD    7

 MAXIMUM HEAD CHANGE FOR EACH ITERATION:

    HEAD CHANGE   HEAD CHANGE   HEAD CHANGE   HEAD CHANGE   HEAD CHANGE
  LAYER,ROW,COL LAYER,ROW,COL LAYER,ROW,COL LAYER,ROW,COL LAYER,ROW,COL
 ----------------------------------------------------------------------
     0.4309E-01    0.2342E-01    0.1272E-01    0.6913E-02    0.3756E-02
  (  1,  2,  7) (  1,  2,  7) (  1,  2,  7) (  1,  2,  7) (  1,  2,  7)
     0.2041E-02    0.1109E-02    0.6025E-03    0.3273E-03    0.1778E-03
  (  1,  2,  7) (  1,  2,  7) (  1,  2,  7) (  1,  2,  7) (  1,  2,  7)


 NO OUTPUT CONTROL FOR STRESS PERIOD      7   TIME STEP     4
 
 SOLVING FOR HEAD 
    10 ITERATIONS FOR TIME STEP   5 IN STRESS PERIOD    7

 MAXIMUM HEAD CHANGE FOR EACH ITERATION:

    HEAD CHANGE   HEAD CHANGE   HEAD CHANGE   HEAD CHANGE   HEAD CHANGE
  LAYER,ROW,COL LAYER,ROW,COL LAYER,ROW,COL LAYER,ROW,COL LAYER,ROW,COL
 ----------------------------------------------------------------------
     0.4382E-01    0.2371E-01    0.1283E-01    0.6939E-02    0.3754E-02
  (  1,  2,  7) (  1,  2,  7) (  1,  2,  7) (  1,  2,  7) (  1,  2,  7)
     0.2031E-02    0.1099E-02    0.5942E-03    0.3214E-03    0.1739E-03
  (  1,  2,  7) (  1,  2,  7) (  1,  2,  7) (  1,  2,  7) (  1,  2,  7)


 OUTPUT CONTROL FOR STRESS PERIOD      7   TIME STEP     5
    PRINT BUDGET
    SAVE BUDGET

           WELLS   PERIOD 7   STEP 5
WELL          1   LAYER          1   ROW          6   COL          4   RATE -2.0
WELL          2   LAYER          1   ROW          6   COL          5   RATE -2.0
WELL          3   LAYER          1   ROW          7   COL          4   RATE -2.0
WELL          4   LAYER          1   ROW          7   COL          5   RATE -2.0
WELL          5   LAYER          1   ROW          8   COL          4   RATE -2.0
WELL          6   LAYER          1   ROW          8   COL          5   RATE -2.0
WELL          7   LAYER          1   ROW          9   COL          4   RATE -2.0
WELL          8   LAYER          1   ROW          9   COL          5   RATE -2.0
WELL          9   LAYER          1   ROW         10   COL          4   RATE -2.0
WELL         10   LAYER          1   ROW         10   COL          5   RATE -2.0

  HEAD DEP BOUNDS   PERIOD    7   STEP   5
 BOUNDARY      1   LAYER   1   ROW    13   COL     1   RATE   -0.264079       COND    0.380000E-01
 BOUNDARY      2   LAYER   1   ROW    14   COL     9   RATE    0.208987       COND    0.380000E-01



 STREAM LISTING     PERIOD      7   STEP        5

 LAYER ROW COL. STREAM  RCH.  FLOW INTO     FLOW TO   FLOW OUT OF   OVRLND.     DIRECT     STREAM       STREAM     STREAM     STREAM   STREAMBED  STREAMBED  STREAMBED
                SEG.NO.  NO.  STRM. RCH.    AQUIFER    STRM. RCH.    RUNOFF     PRECIP       ET          HEAD       DEPTH      WIDTH   CONDCTNC.   GRADIENT  ELEVATION

   1    1    1     1     1    2.5000E+01  1.0348E+00   2.3965E+01  0.000E+00  0.000E+00  0.000E+00  1.09422E+03  1.172E+00  1.296E+01  5.832E-01  5.915E-01  1.093E+03
   1    2    2     1     2    2.3965E+01  3.0625E+00   2.0903E+01  0.000E+00  0.000E+00  0.000E+00  1.08920E+03  1.141E+00  1.254E+01  8.775E-01  1.163E+00  1.088E+03
   1    3    3     1     3    2.0903E+01  2.9051E+00   1.7998E+01  0.000E+00  0.000E+00  0.000E+00  1.08351E+03  1.091E+00  1.183E+01  7.101E-01  1.364E+00  1.082E+03
   1    3    4     1     4    1.7998E+01  2.4676E+00   1.5530E+01  0.000E+00  0.000E+00  0.000E+00  1.07845E+03  1.045E+00  1.099E+01  6.100E-01  1.348E+00  1.077E+03
   1    4    5     2     1    5.5300E+00  2.6629E+00   2.8670E+00  0.000E+00  0.000E+00  0.000E+00  1.07235E+03  4.140E-01  1.200E+01  7.800E-01  1.138E+00  1.072E+03
   1    5    6     2     2    2.8670E+00  1.9539E+00   9.1316E-01  0.000E+00  0.000E+00  0.000E+00  1.06677E+03  2.565E-01  1.200E+01  6.000E-01  1.085E+00  1.067E+03
   1    6    6     2     3    9.1316E-01  9.1316E-01   0.0000E+00  0.000E+00  0.000E+00  0.000E+00  1.06180E+03  9.324E-03  1.200E+01  6.000E-01  1.003E+00  1.062E+03
   1    7    6     2     4    0.0000E+00  0.0000E+00   0.0000E+00  0.000E+00  0.000E+00  0.000E+00  1.05708E+03  0.000E+00  1.200E+01  6.000E-01  1.000E+00  1.057E+03
   1    8    6     2     5    0.0000E+00  0.0000E+00   0.0000E+00  0.000E+00  0.000E+00  0.000E+00  1.05236E+03  0.000E+00  1.200E+01  6.000E-01  1.000E+00  1.052E+03
   1    3    5     3     1    1.0000E+01  2.4601E+00   7.5399E+00  0.000E+00  0.000E+00  0.000E+00  1.07555E+03  1.909E+00  9.636E+00  7.227E-01  1.702E+00  1.074E+03
   1    3    6     3     2    7.5399E+00  1.1886E+00   6.3513E+00  0.000E+00  0.000E+00  0.000E+00  1.07264E+03  1.727E+00  8.909E+00  6.682E-01  8.894E-01  1.071E+03
   1    3    7     3     3    6.3513E+00  4.9977E-01   5.8515E+00  0.000E+00  0.000E+00  0.000E+00  1.06987E+03  1.555E+00  8.218E+00  5.547E-01  4.505E-01  1.068E+03
   1    4    8     3     4    5.8515E+00  1.5132E+00   4.3383E+00  0.000E+00  0.000E+00  0.000E+00  1.06682E+03  1.364E+00  7.455E+00  6.709E-01  1.128E+00  1.065E+03
   1    5    8     3     5    4.3383E+00  1.5789E+00   2.7594E+00  0.000E+00  0.000E+00  0.000E+00  1.06362E+03  1.164E+00  6.655E+00  4.991E-01  1.582E+00  1.062E+03
   1    6    8     3     6    2.7594E+00  5.5980E-01   2.1996E+00  0.000E+00  0.000E+00  0.000E+00  1.06158E+03  1.036E+00  6.145E+00  1.844E-01  1.518E+00  1.061E+03
   1    5   10     4     1    1.0000E+01  9.0525E-01   9.0947E+00  0.000E+00  0.000E+00  0.000E+00  1.07835E+03  6.210E-01  1.000E+01  2.500E-01  1.207E+00  1.078E+03
   1    5    9     4     2    9.0947E+00  1.7835E+00   7.3113E+00  0.000E+00  0.000E+00  0.000E+00  1.07148E+03  5.670E-01  1.000E+01  5.000E-01  1.189E+00  1.071E+03
   1    6    8     4     3    7.3113E+00  1.2257E+00   6.0855E+00  0.000E+00  0.000E+00  0.000E+00  1.06368E+03  5.021E-01  1.000E+01  3.500E-01  1.167E+00  1.063E+03
   1    6    8     5     1    8.2851E+00  1.0716E+00   7.2135E+00  0.000E+00  0.000E+00  0.000E+00  1.05861E+03  6.143E-01  1.298E+01  5.193E-01  6.879E-01  1.058E+03
   1    7    7     5     2    7.2135E+00  2.0261E+00   5.1875E+00  0.000E+00  0.000E+00  0.000E+00  1.05407E+03  5.682E-01  1.136E+01  5.678E-01  1.189E+00  1.054E+03
   1    8    7     5     3    5.1875E+00  1.1675E+00   4.0199E+00  0.000E+00  0.000E+00  0.000E+00  1.04976E+03  5.119E-01  9.498E+00  3.324E-01  1.171E+00  1.049E+03
   1    8    6     5     4    4.0199E+00  7.1861E-01   3.3013E+00  0.000E+00  0.000E+00  0.000E+00  1.04672E+03  4.725E-01  8.278E+00  2.069E-01  1.157E+00  1.046E+03
   1    9    6     6     1    3.3013E+00  1.9757E+00   1.3257E+00  0.000E+00  0.000E+00  0.000E+00  1.04302E+03  2.928E-01  1.200E+01  6.000E-01  1.098E+00  1.043E+03
   1   10    7     6     2    1.3257E+00  1.3257E+00   0.0000E+00  0.000E+00  0.000E+00  0.000E+00  1.03823E+03  4.716E-02  1.200E+01  6.000E-01  1.016E+00  1.038E+03
   1   11    7     6     3    0.0000E+00  0.0000E+00   0.0000E+00  0.000E+00  0.000E+00  0.000E+00  1.03364E+03  0.000E+00  1.200E+01  6.000E-01  1.000E+00  1.034E+03
   1   12    7     6     4    0.0000E+00  0.0000E+00   0.0000E+00  0.000E+00  0.000E+00  0.000E+00  1.02909E+03  0.000E+00  1.200E+01  6.000E-01  2.899E-01  1.029E+03
   1   13    7     6     5    0.0000E+00 -7.7772E-01   7.7772E-01  0.000E+00  0.000E+00  0.000E+00  1.02601E+03  1.004E-01  1.200E+01  2.400E-01 -1.080E+00  1.026E+03
   1   14    9     7     1    1.5000E+02  2.0474E+00   1.4795E+02  0.000E+00  0.000E+00  0.000E+00  1.03987E+03  2.286E+00  5.529E+01  5.592E+00  1.220E-01  1.038E+03
   1   13    8     7     2    1.4795E+02  3.0012E+00   1.4495E+02  0.000E+00  0.000E+00  0.000E+00  1.03477E+03  2.272E+00  5.523E+01  6.144E+00  1.628E-01  1.032E+03
   1   13    7     7     3    1.4495E+02  2.3834E+00   1.4257E+02  0.000E+00  0.000E+00  0.000E+00  1.02968E+03  2.258E+00  5.516E+01  5.578E+00  1.424E-01  1.027E+03
   1   13    6     8     1    1.4335E+02  6.6263E-01   1.4268E+02  0.000E+00  0.000E+00  0.000E+00  1.02464E+03  2.767E+00  4.012E+01  4.088E+00  5.403E-02  1.022E+03
   1   13    5     8     2    1.4268E+02 -2.2378E+00   1.4492E+02  0.000E+00  0.000E+00  0.000E+00  1.01840E+03  2.773E+00  4.020E+01  4.097E+00 -1.821E-01  1.016E+03
   1   13    4     8     3    1.4492E+02 -3.9751E+00   1.4890E+02  0.000E+00  0.000E+00  0.000E+00  1.01217E+03  2.795E+00  4.053E+01  4.130E+00 -3.208E-01  1.009E+03
   1   13    3     8     4    1.4890E+02 -4.2712E+00   1.5317E+02  0.000E+00  0.000E+00  0.000E+00  1.00595E+03  2.824E+00  4.095E+01  4.173E+00 -3.412E-01  1.003E+03
   1   13    2     8     5    1.5317E+02 -2.0821E+00   1.5525E+02  0.000E+00  0.000E+00  0.000E+00  9.99721E+02  2.846E+00  4.127E+01  4.206E+00 -1.650E-01  9.969E+02
   1   13    1     8     6    1.5525E+02 -5.5468E-01   1.5580E+02  0.000E+00  0.000E+00  0.000E+00  9.94730E+02  2.855E+00  4.140E+01  2.531E+00 -7.304E-02  9.919E+02



 UBDSV3 SAVING "           GW ET" ON UNIT 61 AT TIME STEP 5, STRESS PERIOD 7
 UBDSV3 SAVING "    UZF RECHARGE" ON UNIT 61 AT TIME STEP 5, STRESS PERIOD 7
 UBDSV3 SAVING " SURFACE LEAKAGE" ON UNIT 61 AT TIME STEP 5, STRESS PERIOD 7
 UBDSV3 SAVING "       HORT+DUNN" ON UNIT 61 AT TIME STEP 5, STRESS PERIOD 7
 UBDSV3 SAVING "  STORAGE CHANGE" ON UNIT 61 AT TIME STEP 5, STRESS PERIOD 7


UNSATURATED ZONE PACKAGE VOLUMETRIC BUDGET FOR  TIME STEP     5 STRESS PERIOD    7
  ------------------------------------------------------------------------------



     CUMULATIVE VOLUMES      L**3       RATES FOR THIS TIME STEP      L**3/T
     ------------------                 ------------------------

           IN:                                      IN:
           ---                                      ---
        INFILTRATION =     1.2155431E+9          INFILTRATION =       25.4250000

          OUT:                                     OUT:
          ----                                     ----
              UZF ET =     1.2917569E+9                UZF ET =       68.3457816
        UZF RECHARGE =     2.2344891E+8          UZF RECHARGE =       16.9866389

            IN - OUT =    -2.9966270E+8              IN - OUT =      -59.9074205

          STORAGE:                                 STORAGE:
          --------                                 --------
      STORAGE CHANGE =    -2.9947714E+8        STORAGE CHANGE =      -59.9025768

 PERCENT DISCREPANCY =          -0.00     PERCENT DISCREPANCY =          -0.01




 PERCENT DISCREPANCY IS DIFFERENCE BETWEEN IN-OUT MINUS CHANGE IN STORAGE
 DIVIDED BY THE AVERAGE OF IN AND OUT TIMES 100






  -------------------------------------------------------------------------------------
  VOLUMETRIC BUDGET FOR ENTIRE MODEL AT END OF TIME STEP    5 IN STRESS PERIOD      7
  -------------------------------------------------------------------------------------

     CUMULATIVE VOLUMES      L**3       RATES FOR THIS TIME STEP      L**3/T
     ------------------                 ------------------------

           IN:                                      IN:
           ---                                      ---
             STORAGE =    54528864.3487               STORAGE =           5.9491
       CONSTANT HEAD =           0.0000         CONSTANT HEAD =           0.0000
               WELLS =           0.0000                 WELLS =           0.0000
     HEAD DEP BOUNDS =     3398902.8739       HEAD DEP BOUNDS =           0.2090
      STREAM LEAKAGE =   702509376.6653        STREAM LEAKAGE =          43.0947
        UZF RECHARGE =   223448907.5484          UZF RECHARGE =          16.9866
               GW ET =           0.0000                 GW ET =           0.0000
     SURFACE LEAKAGE =           0.0000       SURFACE LEAKAGE =           0.0000

            TOTAL IN =   983886051.4363              TOTAL IN =          66.2395

          OUT:                                     OUT:
          ----                                     ----
             STORAGE =   241853228.8638               STORAGE =          13.8987
       CONSTANT HEAD =           0.0000         CONSTANT HEAD =           0.0000
               WELLS =   246619433.1853                 WELLS =          20.0000
     HEAD DEP BOUNDS =     4287377.2886       HEAD DEP BOUNDS =           0.2641
      STREAM LEAKAGE =   219419733.0113        STREAM LEAKAGE =          13.8985
        UZF RECHARGE =           0.0000          UZF RECHARGE =           0.0000
               GW ET =   271644025.7454                 GW ET =          18.1723
     SURFACE LEAKAGE =           0.0000       SURFACE LEAKAGE =           0.0000

           TOTAL OUT =   983823798.0943             TOTAL OUT =          66.2335

            IN - OUT =       62253.3420              IN - OUT =       5.9609E-03

 PERCENT DISCREPANCY =           0.01     PERCENT DISCREPANCY =           0.01


          TIME SUMMARY AT END OF TIME STEP     5 IN STRESS PERIOD      7
                    SECONDS     MINUTES      HOURS       DAYS        YEARS
                    -----------------------------------------------------------
   TIME STEP LENGTH 1.21100E+05  2018.3      33.639      1.4016     3.83743E-03
 STRESS PERIOD TIME 5.04972E+05  8416.2      140.27      5.8446     1.60016E-02
         TOTAL TIME 1.62730E+07 2.71216E+05  4520.3      188.34     0.51566    
 
 
 SOLVING FOR HEAD 
    10 ITERATIONS FOR TIME STEP   6 IN STRESS PERIOD    7

 MAXIMUM HEAD CHANGE FOR EACH ITERATION:

    HEAD CHANGE   HEAD CHANGE   HEAD CHANGE   HEAD CHANGE   HEAD CHANGE
  LAYER,ROW,COL LAYER,ROW,COL LAYER,ROW,COL LAYER,ROW,COL LAYER,ROW,COL
 ----------------------------------------------------------------------
     0.4635E-01    0.2496E-01    0.1344E-01    0.7234E-02    0.3894E-02
  (  1,  2,  7) (  1,  2,  7) (  1,  2,  7) (  1,  2,  7) (  1,  2,  7)
     0.2097E-02    0.1129E-02    0.6075E-03    0.3270E-03    0.1760E-03
  (  1,  2,  7) (  1,  2,  7) (  1,  2,  7) (  1,  2,  7) (  1,  2,  7)


 NO OUTPUT CONTROL FOR STRESS PERIOD      7   TIME STEP     6
 
 SOLVING FOR HEAD 
    10 ITERATIONS FOR TIME STEP   7 IN STRESS PERIOD    7

 MAXIMUM HEAD CHANGE FOR EACH ITERATION:

    HEAD CHANGE   HEAD CHANGE   HEAD CHANGE   HEAD CHANGE   HEAD CHANGE
  LAYER,ROW,COL LAYER,ROW,COL LAYER,ROW,COL LAYER,ROW,COL LAYER,ROW,COL
 ----------------------------------------------------------------------
     0.4759E-01    0.2526E-01    0.1341E-01    0.7117E-02    0.3777E-02
  (  1,  2,  7) (  1,  2,  7) (  1,  2,  7) (  1,  2,  7) (  1,  2,  7)
     0.2005E-02    0.1064E-02    0.5647E-03    0.2997E-03    0.1591E-03
  (  1,  2,  7) (  1,  2,  7) (  1,  2,  7) (  1,  2,  7) (  1,  2,  7)


 NO OUTPUT CONTROL FOR STRESS PERIOD      7   TIME STEP     7
 
 SOLVING FOR HEAD 
    10 ITERATIONS FOR TIME STEP   8 IN STRESS PERIOD    7

 MAXIMUM HEAD CHANGE FOR EACH ITERATION:

    HEAD CHANGE   HEAD CHANGE   HEAD CHANGE   HEAD CHANGE   HEAD CHANGE
  LAYER,ROW,COL LAYER,ROW,COL LAYER,ROW,COL LAYER,ROW,COL LAYER,ROW,COL
 ----------------------------------------------------------------------
     0.4824E-01    0.2547E-01    0.1344E-01    0.7097E-02    0.3746E-02
  (  1,  2,  7) (  1,  2,  7) (  1,  2,  7) (  1,  2,  7) (  1,  2,  7)
     0.1977E-02    0.1044E-02    0.5508E-03    0.2907E-03    0.1534E-03
  (  1,  2,  7) (  1,  2,  7) (  1,  2,  7) (  1,  2,  7) (  1,  2,  7)


 NO OUTPUT CONTROL FOR STRESS PERIOD      7   TIME STEP     8
 
 SOLVING FOR HEAD 
    10 ITERATIONS FOR TIME STEP   9 IN STRESS PERIOD    7

 MAXIMUM HEAD CHANGE FOR EACH ITERATION:

    HEAD CHANGE   HEAD CHANGE   HEAD CHANGE   HEAD CHANGE   HEAD CHANGE
  LAYER,ROW,COL LAYER,ROW,COL LAYER,ROW,COL LAYER,ROW,COL LAYER,ROW,COL
 ----------------------------------------------------------------------
     0.5027E-01    0.2651E-01    0.1398E-01    0.7337E-02    0.3848E-02
  (  1,  2,  7) (  1,  2,  7) (  1,  2,  7) (  1,  2,  7) (  1,  2,  7)
     0.2018E-02    0.1058E-02    0.5550E-03    0.2910E-03    0.1526E-03
  (  1,  2,  7) (  1,  2,  7) (  1,  2,  7) (  1,  2,  7) (  1,  2,  7)


 NO OUTPUT CONTROL FOR STRESS PERIOD      7   TIME STEP     9
 
 SOLVING FOR HEAD 
    10 ITERATIONS FOR TIME STEP  10 IN STRESS PERIOD    7

 MAXIMUM HEAD CHANGE FOR EACH ITERATION:

    HEAD CHANGE   HEAD CHANGE   HEAD CHANGE   HEAD CHANGE   HEAD CHANGE
  LAYER,ROW,COL LAYER,ROW,COL LAYER,ROW,COL LAYER,ROW,COL LAYER,ROW,COL
 ----------------------------------------------------------------------
     0.4925E-01    0.2542E-01    0.1312E-01    0.6771E-02    0.3495E-02
  (  1,  2,  7) (  1,  2,  7) (  1,  2,  7) (  1,  2,  7) (  1,  2,  7)
     0.1804E-02    0.9312E-03    0.4807E-03    0.2481E-03    0.1281E-03
  (  1,  2,  7) (  1,  2,  7) (  1,  2,  7) (  1,  2,  7) (  1,  2,  7)


 OUTPUT CONTROL FOR STRESS PERIOD      7   TIME STEP    10
    PRINT BUDGET
    SAVE BUDGET

           WELLS   PERIOD 7   STEP 10
WELL          1   LAYER          1   ROW          6   COL          4   RATE -2.0
WELL          2   LAYER          1   ROW          6   COL          5   RATE -2.0
WELL          3   LAYER          1   ROW          7   COL          4   RATE -2.0
WELL          4   LAYER          1   ROW          7   COL          5   RATE -2.0
WELL          5   LAYER          1   ROW          8   COL          4   RATE -2.0
WELL          6   LAYER          1   ROW          8   COL          5   RATE -2.0
WELL          7   LAYER          1   ROW          9   COL          4   RATE -2.0
WELL          8   LAYER          1   ROW          9   COL          5   RATE -2.0
WELL          9   LAYER          1   ROW         10   COL          4   RATE -2.0
WELL         10   LAYER          1   ROW         10   COL          5   RATE -2.0

  HEAD DEP BOUNDS   PERIOD    7   STEP  10
 BOUNDARY      1   LAYER   1   ROW    13   COL     1   RATE   -0.263782       COND    0.380000E-01
 BOUNDARY      2   LAYER   1   ROW    14   COL     9   RATE    0.208976       COND    0.380000E-01



 STREAM LISTING     PERIOD      7   STEP       10

 LAYER ROW COL. STREAM  RCH.  FLOW INTO     FLOW TO   FLOW OUT OF   OVRLND.     DIRECT     STREAM       STREAM     STREAM     STREAM   STREAMBED  STREAMBED  STREAMBED
                SEG.NO.  NO.  STRM. RCH.    AQUIFER    STRM. RCH.    RUNOFF     PRECIP       ET          HEAD       DEPTH      WIDTH   CONDCTNC.   GRADIENT  ELEVATION

   1    1    1     1     1    2.5000E+01  1.0389E+00   2.3961E+01  0.000E+00  0.000E+00  0.000E+00  1.09422E+03  1.172E+00  1.296E+01  5.831E-01  5.939E-01  1.093E+03
   1    2    2     1     2    2.3961E+01  3.0639E+00   2.0897E+01  0.000E+00  0.000E+00  0.000E+00  1.08920E+03  1.140E+00  1.253E+01  8.774E-01  1.164E+00  1.088E+03
   1    3    3     1     3    2.0897E+01  2.9046E+00   1.7993E+01  0.000E+00  0.000E+00  0.000E+00  1.08351E+03  1.091E+00  1.183E+01  7.100E-01  1.364E+00  1.082E+03
   1    3    4     1     4    1.7993E+01  2.4672E+00   1.5525E+01  0.000E+00  0.000E+00  0.000E+00  1.07845E+03  1.045E+00  1.099E+01  6.099E-01  1.348E+00  1.077E+03
   1    4    5     2     1    5.5253E+00  2.6627E+00   2.8626E+00  0.000E+00  0.000E+00  0.000E+00  1.07235E+03  4.137E-01  1.200E+01  7.800E-01  1.138E+00  1.072E+03
   1    5    6     2     2    2.8626E+00  1.9537E+00   9.0893E-01  0.000E+00  0.000E+00  0.000E+00  1.06677E+03  2.561E-01  1.200E+01  6.000E-01  1.085E+00  1.067E+03
   1    6    6     2     3    9.0893E-01  9.0893E-01   0.0000E+00  0.000E+00  0.000E+00  0.000E+00  1.06183E+03  3.719E-02  1.200E+01  6.000E-01  1.012E+00  1.062E+03
   1    7    6     2     4    0.0000E+00  0.0000E+00   0.0000E+00  0.000E+00  0.000E+00  0.000E+00  1.05708E+03  0.000E+00  1.200E+01  6.000E-01  1.000E+00  1.057E+03
   1    8    6     2     5    0.0000E+00  0.0000E+00   0.0000E+00  0.000E+00  0.000E+00  0.000E+00  1.05236E+03  0.000E+00  1.200E+01  6.000E-01  1.000E+00  1.052E+03
   1    3    5     3     1    1.0000E+01  2.4408E+00   7.5592E+00  0.000E+00  0.000E+00  0.000E+00  1.07555E+03  1.909E+00  9.636E+00  7.227E-01  1.689E+00  1.074E+03
   1    3    6     3     2    7.5592E+00  1.1998E+00   6.3594E+00  0.000E+00  0.000E+00  0.000E+00  1.07264E+03  1.727E+00  8.909E+00  6.682E-01  8.978E-01  1.071E+03
   1    3    7     3     3    6.3594E+00  4.8665E-01   5.8727E+00  0.000E+00  0.000E+00  0.000E+00  1.06987E+03  1.555E+00  8.218E+00  5.547E-01  4.386E-01  1.068E+03
   1    4    8     3     4    5.8727E+00  1.5077E+00   4.3651E+00  0.000E+00  0.000E+00  0.000E+00  1.06682E+03  1.364E+00  7.455E+00  6.709E-01  1.124E+00  1.065E+03
   1    5    8     3     5    4.3651E+00  1.5789E+00   2.7861E+00  0.000E+00  0.000E+00  0.000E+00  1.06362E+03  1.164E+00  6.655E+00  4.991E-01  1.582E+00  1.062E+03
   1    6    8     3     6    2.7861E+00  5.5980E-01   2.2264E+00  0.000E+00  0.000E+00  0.000E+00  1.06158E+03  1.036E+00  6.145E+00  1.844E-01  1.518E+00  1.061E+03
   1    5   10     4     1    1.0000E+01  9.0525E-01   9.0947E+00  0.000E+00  0.000E+00  0.000E+00  1.07835E+03  6.210E-01  1.000E+01  2.500E-01  1.207E+00  1.078E+03
   1    5    9     4     2    9.0947E+00  1.7835E+00   7.3113E+00  0.000E+00  0.000E+00  0.000E+00  1.07148E+03  5.670E-01  1.000E+01  5.000E-01  1.189E+00  1.071E+03
   1    6    8     4     3    7.3113E+00  1.2257E+00   6.0855E+00  0.000E+00  0.000E+00  0.000E+00  1.06368E+03  5.021E-01  1.000E+01  3.500E-01  1.167E+00  1.063E+03
   1    6    8     5     1    8.3119E+00  1.0653E+00   7.2466E+00  0.000E+00  0.000E+00  0.000E+00  1.05862E+03  6.151E-01  1.301E+01  5.205E-01  6.823E-01  1.058E+03
   1    7    7     5     2    7.2466E+00  2.0325E+00   5.2141E+00  0.000E+00  0.000E+00  0.000E+00  1.05407E+03  5.691E-01  1.139E+01  5.695E-01  1.190E+00  1.054E+03
   1    8    7     5     3    5.2141E+00  1.1716E+00   4.0425E+00  0.000E+00  0.000E+00  0.000E+00  1.04976E+03  5.129E-01  9.529E+00  3.335E-01  1.171E+00  1.049E+03
   1    8    6     5     4    4.0425E+00  7.2132E-01   3.3212E+00  0.000E+00  0.000E+00  0.000E+00  1.04672E+03  4.734E-01  8.307E+00  2.077E-01  1.158E+00  1.046E+03
   1    9    6     6     1    3.3212E+00  1.9766E+00   1.3447E+00  0.000E+00  0.000E+00  0.000E+00  1.04302E+03  2.943E-01  1.200E+01  6.000E-01  1.098E+00  1.043E+03
   1   10    7     6     2    1.3447E+00  1.3447E+00   0.0000E+00  0.000E+00  0.000E+00  0.000E+00  1.03823E+03  4.757E-02  1.200E+01  6.000E-01  1.016E+00  1.038E+03
   1   11    7     6     3    0.0000E+00  0.0000E+00   0.0000E+00  0.000E+00  0.000E+00  0.000E+00  1.03364E+03  0.000E+00  1.200E+01  6.000E-01  1.000E+00  1.034E+03
   1   12    7     6     4    0.0000E+00  0.0000E+00   0.0000E+00  0.000E+00  0.000E+00  0.000E+00  1.02909E+03  0.000E+00  1.200E+01  6.000E-01  2.883E-01  1.029E+03
   1   13    7     6     5    0.0000E+00 -7.8238E-01   7.8238E-01  0.000E+00  0.000E+00  0.000E+00  1.02601E+03  1.008E-01  1.200E+01  2.400E-01 -1.087E+00  1.026E+03
   1   14    9     7     1    1.5000E+02  2.0459E+00   1.4795E+02  0.000E+00  0.000E+00  0.000E+00  1.03987E+03  2.286E+00  5.529E+01  5.592E+00  1.220E-01  1.038E+03
   1   13    8     7     2    1.4795E+02  2.9971E+00   1.4496E+02  0.000E+00  0.000E+00  0.000E+00  1.03477E+03  2.272E+00  5.523E+01  6.144E+00  1.626E-01  1.032E+03
   1   13    7     7     3    1.4496E+02  2.2751E+00   1.4268E+02  0.000E+00  0.000E+00  0.000E+00  1.02968E+03  2.258E+00  5.516E+01  5.578E+00  1.359E-01  1.027E+03
   1   13    6     8     1    1.4346E+02  5.7804E-01   1.4289E+02  0.000E+00  0.000E+00  0.000E+00  1.02464E+03  2.768E+00  4.014E+01  4.090E+00  4.711E-02  1.022E+03
   1   13    5     8     2    1.4289E+02 -2.1330E+00   1.4502E+02  0.000E+00  0.000E+00  0.000E+00  1.01840E+03  2.774E+00  4.022E+01  4.098E+00 -1.735E-01  1.016E+03
   1   13    4     8     3    1.4502E+02 -3.8349E+00   1.4885E+02  0.000E+00  0.000E+00  0.000E+00  1.01217E+03  2.795E+00  4.053E+01  4.130E+00 -3.095E-01  1.009E+03
   1   13    3     8     4    1.4885E+02 -4.1479E+00   1.5300E+02  0.000E+00  0.000E+00  0.000E+00  1.00595E+03  2.823E+00  4.094E+01  4.172E+00 -3.314E-01  1.003E+03
   1   13    2     8     5    1.5300E+02 -2.0842E+00   1.5509E+02  0.000E+00  0.000E+00  0.000E+00  9.99720E+02  2.845E+00  4.125E+01  4.204E+00 -1.653E-01  9.969E+02
   1   13    1     8     6    1.5509E+02 -5.3772E-01   1.5562E+02  0.000E+00  0.000E+00  0.000E+00  9.94729E+02  2.854E+00  4.138E+01  2.530E+00 -7.084E-02  9.919E+02



 UBDSV3 SAVING "           GW ET" ON UNIT 61 AT TIME STEP 10, STRESS PERIOD 7
 UBDSV3 SAVING "    UZF RECHARGE" ON UNIT 61 AT TIME STEP 10, STRESS PERIOD 7
 UBDSV3 SAVING " SURFACE LEAKAGE" ON UNIT 61 AT TIME STEP 10, STRESS PERIOD 7
 UBDSV3 SAVING "       HORT+DUNN" ON UNIT 61 AT TIME STEP 10, STRESS PERIOD 7
 UBDSV3 SAVING "  STORAGE CHANGE" ON UNIT 61 AT TIME STEP 10, STRESS PERIOD 7


UNSATURATED ZONE PACKAGE VOLUMETRIC BUDGET FOR  TIME STEP    10 STRESS PERIOD    7
  ------------------------------------------------------------------------------



     CUMULATIVE VOLUMES      L**3       RATES FOR THIS TIME STEP      L**3/T
     ------------------                 ------------------------

           IN:                                      IN:
           ---                                      ---
        INFILTRATION =     1.2362203E+9          INFILTRATION =       25.4250000

          OUT:                                     OUT:
          ----                                     ----
              UZF ET =     1.3477161E+9                UZF ET =       69.0801507
        UZF RECHARGE =     2.3537619E+8          UZF RECHARGE =       12.4900692

            IN - OUT =    -3.4687204E+8              IN - OUT =      -56.1452199

          STORAGE:                                 STORAGE:
          --------                                 --------
      STORAGE CHANGE =    -3.4668308E+8        STORAGE CHANGE =      -56.1443100

 PERCENT DISCREPANCY =          -0.00     PERCENT DISCREPANCY =          -0.00




 PERCENT DISCREPANCY IS DIFFERENCE BETWEEN IN-OUT MINUS CHANGE IN STORAGE
 DIVIDED BY THE AVERAGE OF IN AND OUT TIMES 100






  -------------------------------------------------------------------------------------
  VOLUMETRIC BUDGET FOR ENTIRE MODEL AT END OF TIME STEP   10 IN STRESS PERIOD      7
  -------------------------------------------------------------------------------------

     CUMULATIVE VOLUMES      L**3       RATES FOR THIS TIME STEP      L**3/T
     ------------------                 ------------------------

           IN:                                      IN:
           ---                                      ---
             STORAGE =    59373848.6893               STORAGE =           6.4354
       CONSTANT HEAD =           0.0000         CONSTANT HEAD =           0.0000
               WELLS =           0.0000                 WELLS =           0.0000
     HEAD DEP BOUNDS =     3568858.3866       HEAD DEP BOUNDS =           0.2090
      STREAM LEAKAGE =   737464973.5709        STREAM LEAKAGE =          42.8961
        UZF RECHARGE =   235376188.9575          UZF RECHARGE =          12.4901
               GW ET =           0.0000                 GW ET =           0.0000
     SURFACE LEAKAGE =           0.0000       SURFACE LEAKAGE =           0.0000

            TOTAL IN =  1035783869.6044              TOTAL IN =          62.0306

          OUT:                                     OUT:
          ----                                     ----
             STORAGE =   251365396.7195               STORAGE =          10.0891
       CONSTANT HEAD =           0.0000         CONSTANT HEAD =           0.0000
               WELLS =   262884671.3245                 WELLS =          20.0000
     HEAD DEP BOUNDS =     4501991.5362       HEAD DEP BOUNDS =           0.2638
      STREAM LEAKAGE =   230545676.5578        STREAM LEAKAGE =          13.5200
        UZF RECHARGE =           0.0000          UZF RECHARGE =           0.0000
               GW ET =   286421112.0824                 GW ET =          18.1562
     SURFACE LEAKAGE =           0.0000       SURFACE LEAKAGE =           0.0000

           TOTAL OUT =  1035718848.2203             TOTAL OUT =          62.0291

            IN - OUT =       65021.3841              IN - OUT =       1.4764E-03

 PERCENT DISCREPANCY =           0.01     PERCENT DISCREPANCY =           0.00


          TIME SUMMARY AT END OF TIME STEP    10 IN STRESS PERIOD      7
                    SECONDS     MINUTES      HOURS       DAYS        YEARS
                    -----------------------------------------------------------
   TIME STEP LENGTH 1.95033E+05  3250.6      54.176      2.2573     6.18023E-03
 STRESS PERIOD TIME 1.31823E+06  21971.      366.18      15.257     4.17723E-02
         TOTAL TIME 1.70862E+07 2.84771E+05  4746.2      197.76     0.54143    
 
 
 SOLVING FOR HEAD 
    10 ITERATIONS FOR TIME STEP  11 IN STRESS PERIOD    7

 MAXIMUM HEAD CHANGE FOR EACH ITERATION:

    HEAD CHANGE   HEAD CHANGE   HEAD CHANGE   HEAD CHANGE   HEAD CHANGE
  LAYER,ROW,COL LAYER,ROW,COL LAYER,ROW,COL LAYER,ROW,COL LAYER,ROW,COL
 ----------------------------------------------------------------------
     0.4985E-01    0.2554E-01    0.1309E-01    0.6707E-02    0.3438E-02
  (  1,  2,  7) (  1,  2,  7) (  1,  2,  7) (  1,  2,  7) (  1,  2,  7)
     0.1762E-02    0.9033E-03    0.4631E-03    0.2374E-03    0.1217E-03
  (  1,  2,  7) (  1,  2,  7) (  1,  2,  7) (  1,  2,  7) (  1,  2,  7)


 NO OUTPUT CONTROL FOR STRESS PERIOD      7   TIME STEP    11
 
 SOLVING FOR HEAD 
    10 ITERATIONS FOR TIME STEP  12 IN STRESS PERIOD    7

 MAXIMUM HEAD CHANGE FOR EACH ITERATION:

    HEAD CHANGE   HEAD CHANGE   HEAD CHANGE   HEAD CHANGE   HEAD CHANGE
  LAYER,ROW,COL LAYER,ROW,COL LAYER,ROW,COL LAYER,ROW,COL LAYER,ROW,COL
 ----------------------------------------------------------------------
     0.5063E-01    0.2573E-01    0.1308E-01    0.6651E-02    0.3383E-02
  (  1,  2,  7) (  1,  2,  7) (  1,  2,  7) (  1,  2,  7) (  1,  2,  7)
     0.1720E-02    0.8750E-03    0.4450E-03    0.2264E-03    0.1151E-03
  (  1,  2,  7) (  1,  2,  7) (  1,  2,  7) (  1,  2,  7) (  1,  2,  7)


 NO OUTPUT CONTROL FOR STRESS PERIOD      7   TIME STEP    12
 
 SOLVING FOR HEAD 
     9 ITERATIONS FOR TIME STEP  13 IN STRESS PERIOD    7

 MAXIMUM HEAD CHANGE FOR EACH ITERATION:

    HEAD CHANGE   HEAD CHANGE   HEAD CHANGE   HEAD CHANGE   HEAD CHANGE
  LAYER,ROW,COL LAYER,ROW,COL LAYER,ROW,COL LAYER,ROW,COL LAYER,ROW,COL
 ----------------------------------------------------------------------
    -0.5122E-01    0.2314E-01    0.1156E-01    0.5778E-02    0.2889E-02
  (  1,  3,  6) (  1,  2,  7) (  1,  2,  7) (  1,  2,  7) (  1,  2,  7)
     0.1444E-02    0.7223E-03    0.3612E-03    0.1807E-03
  (  1,  2,  7) (  1,  2,  7) (  1,  2,  7) (  1,  2,  7)


 NO OUTPUT CONTROL FOR STRESS PERIOD      7   TIME STEP    13
 
 SOLVING FOR HEAD 
     9 ITERATIONS FOR TIME STEP  14 IN STRESS PERIOD    7

 MAXIMUM HEAD CHANGE FOR EACH ITERATION:

    HEAD CHANGE   HEAD CHANGE   HEAD CHANGE   HEAD CHANGE   HEAD CHANGE
  LAYER,ROW,COL LAYER,ROW,COL LAYER,ROW,COL LAYER,ROW,COL LAYER,ROW,COL
 ----------------------------------------------------------------------
    -0.5463E-01    0.2310E-01    0.1144E-01    0.5668E-02    0.2809E-02
  (  1,  3,  6) (  1,  2,  7) (  1,  2,  7) (  1,  2,  7) (  1,  2,  7)
     0.1392E-02    0.6903E-03    0.3422E-03    0.1697E-03
  (  1,  2,  7) (  1,  2,  7) (  1,  2,  7) (  1,  2,  7)


 NO OUTPUT CONTROL FOR STRESS PERIOD      7   TIME STEP    14
 
 SOLVING FOR HEAD 
     9 ITERATIONS FOR TIME STEP  15 IN STRESS PERIOD    7

 MAXIMUM HEAD CHANGE FOR EACH ITERATION:

    HEAD CHANGE   HEAD CHANGE   HEAD CHANGE   HEAD CHANGE   HEAD CHANGE
  LAYER,ROW,COL LAYER,ROW,COL LAYER,ROW,COL LAYER,ROW,COL LAYER,ROW,COL
 ----------------------------------------------------------------------
    -0.5669E-01   -0.2205E-01    0.1062E-01    0.5212E-02    0.2559E-02
  (  1,  3,  6) (  1,  3,  6) (  1,  2,  7) (  1,  2,  7) (  1,  2,  7)
     0.1256E-02    0.6167E-03    0.3027E-03    0.1487E-03
  (  1,  2,  7) (  1,  2,  7) (  1,  2,  7) (  1,  2,  7)


 OUTPUT CONTROL FOR STRESS PERIOD      7   TIME STEP    15
    PRINT BUDGET
    PRINT HEAD FOR ALL LAYERS
    SAVE HEAD FOR ALL LAYERS
    SAVE BUDGET

           WELLS   PERIOD 7   STEP 15
WELL          1   LAYER          1   ROW          6   COL          4   RATE -2.0
WELL          2   LAYER          1   ROW          6   COL          5   RATE -2.0
WELL          3   LAYER          1   ROW          7   COL          4   RATE -2.0
WELL          4   LAYER          1   ROW          7   COL          5   RATE -2.0
WELL          5   LAYER          1   ROW          8   COL          4   RATE -2.0
WELL          6   LAYER          1   ROW          8   COL          5   RATE -2.0
WELL          7   LAYER          1   ROW          9   COL          4   RATE -2.0
WELL          8   LAYER          1   ROW          9   COL          5   RATE -2.0
WELL          9   LAYER          1   ROW         10   COL          4   RATE -2.0
WELL         10   LAYER          1   ROW         10   COL          5   RATE -2.0

  HEAD DEP BOUNDS   PERIOD    7   STEP  15
 BOUNDARY      1   LAYER   1   ROW    13   COL     1   RATE   -0.263896       COND    0.380000E-01
 BOUNDARY      2   LAYER   1   ROW    14   COL     9   RATE    0.208967       COND    0.380000E-01



 STREAM LISTING     PERIOD      7   STEP       15

 LAYER ROW COL. STREAM  RCH.  FLOW INTO     FLOW TO   FLOW OUT OF   OVRLND.     DIRECT     STREAM       STREAM     STREAM     STREAM   STREAMBED  STREAMBED  STREAMBED
                SEG.NO.  NO.  STRM. RCH.    AQUIFER    STRM. RCH.    RUNOFF     PRECIP       ET          HEAD       DEPTH      WIDTH   CONDCTNC.   GRADIENT  ELEVATION

   1    1    1     1     1    2.5000E+01  1.0445E+00   2.3956E+01  0.000E+00  0.000E+00  0.000E+00  1.09422E+03  1.172E+00  1.296E+01  5.831E-01  5.971E-01  1.093E+03
   1    2    2     1     2    2.3956E+01  3.0651E+00   2.0890E+01  0.000E+00  0.000E+00  0.000E+00  1.08920E+03  1.140E+00  1.253E+01  8.773E-01  1.165E+00  1.088E+03
   1    3    3     1     3    2.0890E+01  2.9041E+00   1.7986E+01  0.000E+00  0.000E+00  0.000E+00  1.08351E+03  1.091E+00  1.183E+01  7.099E-01  1.364E+00  1.082E+03
   1    3    4     1     4    1.7986E+01  2.4667E+00   1.5520E+01  0.000E+00  0.000E+00  0.000E+00  1.07845E+03  1.045E+00  1.099E+01  6.098E-01  1.348E+00  1.077E+03
   1    4    5     2     1    5.5197E+00  2.6625E+00   2.8572E+00  0.000E+00  0.000E+00  0.000E+00  1.07235E+03  4.134E-01  1.200E+01  7.800E-01  1.138E+00  1.072E+03
   1    5    6     2     2    2.8572E+00  1.9534E+00   9.0380E-01  0.000E+00  0.000E+00  0.000E+00  1.06677E+03  2.557E-01  1.200E+01  6.000E-01  1.085E+00  1.067E+03
   1    6    6     2     3    9.0380E-01  9.0380E-01   0.0000E+00  0.000E+00  0.000E+00  0.000E+00  1.06183E+03  3.707E-02  1.200E+01  6.000E-01  1.012E+00  1.062E+03
   1    7    6     2     4    0.0000E+00  0.0000E+00   0.0000E+00  0.000E+00  0.000E+00  0.000E+00  1.05708E+03  0.000E+00  1.200E+01  6.000E-01  1.000E+00  1.057E+03
   1    8    6     2     5    0.0000E+00  0.0000E+00   0.0000E+00  0.000E+00  0.000E+00  0.000E+00  1.05236E+03  0.000E+00  1.200E+01  6.000E-01  1.000E+00  1.052E+03
   1    3    5     3     1    1.0000E+01  2.7227E+00   7.2773E+00  0.000E+00  0.000E+00  0.000E+00  1.07555E+03  1.909E+00  9.636E+00  7.227E-01  1.884E+00  1.074E+03
   1    3    6     3     2    7.2773E+00  1.4819E+00   5.7954E+00  0.000E+00  0.000E+00  0.000E+00  1.07264E+03  1.727E+00  8.909E+00  6.682E-01  1.109E+00  1.071E+03
   1    3    7     3     3    5.7954E+00  6.2452E-01   5.1708E+00  0.000E+00  0.000E+00  0.000E+00  1.06987E+03  1.555E+00  8.218E+00  5.547E-01  5.629E-01  1.068E+03
   1    4    8     3     4    5.1708E+00  1.5038E+00   3.6671E+00  0.000E+00  0.000E+00  0.000E+00  1.06682E+03  1.364E+00  7.455E+00  6.709E-01  1.121E+00  1.065E+03
   1    5    8     3     5    3.6671E+00  1.5789E+00   2.0881E+00  0.000E+00  0.000E+00  0.000E+00  1.06362E+03  1.164E+00  6.655E+00  4.991E-01  1.582E+00  1.062E+03
   1    6    8     3     6    2.0881E+00  5.5980E-01   1.5284E+00  0.000E+00  0.000E+00  0.000E+00  1.06158E+03  1.036E+00  6.145E+00  1.844E-01  1.518E+00  1.061E+03
   1    5   10     4     1    1.0000E+01  9.0525E-01   9.0947E+00  0.000E+00  0.000E+00  0.000E+00  1.07835E+03  6.210E-01  1.000E+01  2.500E-01  1.207E+00  1.078E+03
   1    5    9     4     2    9.0947E+00  1.7835E+00   7.3113E+00  0.000E+00  0.000E+00  0.000E+00  1.07148E+03  5.670E-01  1.000E+01  5.000E-01  1.189E+00  1.071E+03
   1    6    8     4     3    7.3113E+00  1.2257E+00   6.0855E+00  0.000E+00  0.000E+00  0.000E+00  1.06368E+03  5.021E-01  1.000E+01  3.500E-01  1.167E+00  1.063E+03
   1    6    8     5     1    7.6139E+00  9.9083E-01   6.6231E+00  0.000E+00  0.000E+00  0.000E+00  1.05860E+03  5.963E-01  1.234E+01  4.935E-01  6.693E-01  1.058E+03
   1    7    7     5     2    6.6231E+00  1.9103E+00   4.7127E+00  0.000E+00  0.000E+00  0.000E+00  1.05405E+03  5.506E-01  1.076E+01  5.380E-01  1.184E+00  1.054E+03
   1    8    7     5     3    4.7127E+00  1.0940E+00   3.6187E+00  0.000E+00  0.000E+00  0.000E+00  1.04974E+03  4.943E-01  8.945E+00  3.131E-01  1.165E+00  1.049E+03
   1    8    6     5     4    3.6187E+00  6.6985E-01   2.9489E+00  0.000E+00  0.000E+00  0.000E+00  1.04670E+03  4.548E-01  7.756E+00  1.939E-01  1.152E+00  1.046E+03
   1    9    6     6     1    2.9489E+00  1.9595E+00   9.8938E-01  0.000E+00  0.000E+00  0.000E+00  1.04299E+03  2.658E-01  1.200E+01  6.000E-01  1.089E+00  1.043E+03
   1   10    7     6     2    9.8938E-01  9.8938E-01   0.0000E+00  0.000E+00  0.000E+00  0.000E+00  1.03820E+03  1.979E-02  1.200E+01  6.000E-01  1.007E+00  1.038E+03
   1   11    7     6     3    0.0000E+00  0.0000E+00   0.0000E+00  0.000E+00  0.000E+00  0.000E+00  1.03364E+03  0.000E+00  1.200E+01  6.000E-01  1.000E+00  1.034E+03
   1   12    7     6     4    0.0000E+00  0.0000E+00   0.0000E+00  0.000E+00  0.000E+00  0.000E+00  1.02909E+03  0.000E+00  1.200E+01  6.000E-01  2.842E-01  1.029E+03
   1   13    7     6     5    0.0000E+00 -7.8519E-01   7.8519E-01  0.000E+00  0.000E+00  0.000E+00  1.02601E+03  1.010E-01  1.200E+01  2.400E-01 -1.091E+00  1.026E+03
   1   14    9     7     1    1.5000E+02  2.0445E+00   1.4796E+02  0.000E+00  0.000E+00  0.000E+00  1.03987E+03  2.286E+00  5.529E+01  5.592E+00  1.219E-01  1.038E+03
   1   13    8     7     2    1.4796E+02  2.9873E+00   1.4497E+02  0.000E+00  0.000E+00  0.000E+00  1.03477E+03  2.272E+00  5.523E+01  6.144E+00  1.621E-01  1.032E+03
   1   13    7     7     3    1.4497E+02  2.2098E+00   1.4276E+02  0.000E+00  0.000E+00  0.000E+00  1.02968E+03  2.258E+00  5.516E+01  5.579E+00  1.320E-01  1.027E+03
   1   13    6     8     1    1.4354E+02  5.6700E-01   1.4298E+02  0.000E+00  0.000E+00  0.000E+00  1.02464E+03  2.769E+00  4.015E+01  4.091E+00  4.620E-02  1.022E+03
   1   13    5     8     2    1.4298E+02 -2.0417E+00   1.4502E+02  0.000E+00  0.000E+00  0.000E+00  1.01840E+03  2.774E+00  4.022E+01  4.099E+00 -1.660E-01  1.016E+03
   1   13    4     8     3    1.4502E+02 -3.7565E+00   1.4877E+02  0.000E+00  0.000E+00  0.000E+00  1.01217E+03  2.795E+00  4.053E+01  4.130E+00 -3.032E-01  1.009E+03
   1   13    3     8     4    1.4877E+02 -4.0389E+00   1.5281E+02  0.000E+00  0.000E+00  0.000E+00  1.00595E+03  2.822E+00  4.093E+01  4.170E+00 -3.228E-01  1.003E+03
   1   13    2     8     5    1.5281E+02 -2.0786E+00   1.5489E+02  0.000E+00  0.000E+00  0.000E+00  9.99719E+02  2.844E+00  4.123E+01  4.202E+00 -1.649E-01  9.969E+02
   1   13    1     8     6    1.5489E+02 -5.4832E-01   1.5544E+02  0.000E+00  0.000E+00  0.000E+00  9.94728E+02  2.853E+00  4.137E+01  2.529E+00 -7.227E-02  9.919E+02



 UBDSV3 SAVING "           GW ET" ON UNIT 61 AT TIME STEP 15, STRESS PERIOD 7
 UBDSV3 SAVING "    UZF RECHARGE" ON UNIT 61 AT TIME STEP 15, STRESS PERIOD 7
 UBDSV3 SAVING " SURFACE LEAKAGE" ON UNIT 61 AT TIME STEP 15, STRESS PERIOD 7
 UBDSV3 SAVING "       HORT+DUNN" ON UNIT 61 AT TIME STEP 15, STRESS PERIOD 7
 UBDSV3 SAVING "  STORAGE CHANGE" ON UNIT 61 AT TIME STEP 15, STRESS PERIOD 7


UNSATURATED ZONE PACKAGE VOLUMETRIC BUDGET FOR  TIME STEP    15 STRESS PERIOD    7
  ------------------------------------------------------------------------------



     CUMULATIVE VOLUMES      L**3       RATES FOR THIS TIME STEP      L**3/T
     ------------------                 ------------------------

           IN:                                      IN:
           ---                                      ---
        INFILTRATION =     1.2695211E+9          INFILTRATION =       25.4250000

          OUT:                                     OUT:
          ----                                     ----
              UZF ET =     1.4383830E+9                UZF ET =       69.1041737
        UZF RECHARGE =     2.4861620E+8          UZF RECHARGE =        9.2097811

            IN - OUT =    -4.1747815E+8              IN - OUT =      -52.8889548

          STORAGE:                                 STORAGE:
          --------                                 --------
      STORAGE CHANGE =    -4.1727791E+8        STORAGE CHANGE =      -52.8774340

 PERCENT DISCREPANCY =          -0.00     PERCENT DISCREPANCY =          -0.01




 PERCENT DISCREPANCY IS DIFFERENCE BETWEEN IN-OUT MINUS CHANGE IN STORAGE
 DIVIDED BY THE AVERAGE OF IN AND OUT TIMES 100



1
              HEAD IN LAYER   1 AT END OF TIME STEP  15 IN STRESS PERIOD    7
  ---------------------------------------------------------------------------

           1       2       3       4       5       6       7       8       9      10
 ...................................................................................
   1  1092.43 1088.67 6999.00 6999.00 6999.00 6999.00 6999.00 6999.00 6999.00 6999.00
   2  1089.11 1085.71 1079.22 6999.00 6999.00 1073.73 1072.67 1070.57 6999.00 6999.00
   3  6999.00 1077.41 1074.42 1070.33 1071.78 1070.42 1068.75 1068.14 6999.00 6999.00
   4  1067.84 1068.41 1066.75 1063.28 1062.20 1060.94 1061.70 1064.58 1063.84 6999.00
   5  1063.69 1061.33 1058.77 1056.80 1056.57 1057.25 1057.21 1059.39 1062.91 1065.35
   6  1059.01 1055.40 1052.34 1050.31 1050.68 1052.60 1054.06 1056.59 1059.41 1063.67
   7  1055.35 1049.74 1046.48 1044.62 1045.34 1047.63 1050.33 1052.77 1054.17 6999.00
   8  6999.00 1042.39 1040.42 1039.05 1040.04 1042.56 1044.62 1047.19 1049.16 6999.00
   9  6999.00 1035.45 1034.43 1033.71 1035.01 1037.68 1038.81 1040.72 1043.74 6999.00
  10  6999.00 1028.41 1028.47 1028.85 1030.44 1032.77 1034.39 1036.26 1040.01 1044.38
  11  6999.00 1019.65 1021.22 1024.55 1026.63 1028.85 1030.49 1032.83 1036.29 6999.00
  12  1001.19 1008.85 1014.05 1018.84 1022.49 1025.78 1028.24 1031.11 1034.88 6999.00
  13   994.94 1000.21 1006.92 1013.08 1018.90 1024.51 1029.28 1034.29 1036.41 6999.00
  14  6999.00 1005.83 1011.53 1016.25 1021.28 1026.04 1030.32 1035.30 1039.50 6999.00
  15  6999.00 6999.00 1018.84 1021.83 1025.57 1028.55 6999.00 6999.00 6999.00 6999.00

 HEAD WILL BE SAVED ON UNIT   58 AT END OF TIME STEP    15 IN STRESS PERIOD      7



  -------------------------------------------------------------------------------------
  VOLUMETRIC BUDGET FOR ENTIRE MODEL AT END OF TIME STEP   15 IN STRESS PERIOD      7
  -------------------------------------------------------------------------------------

     CUMULATIVE VOLUMES      L**3       RATES FOR THIS TIME STEP      L**3/T
     ------------------                 ------------------------

           IN:                                      IN:
           ---                                      ---
             STORAGE =    67338963.1030               STORAGE =           5.4745
       CONSTANT HEAD =           0.0000         CONSTANT HEAD =           0.0000
               WELLS =           0.0000                 WELLS =           0.0000
     HEAD DEP BOUNDS =     3842560.4201       HEAD DEP BOUNDS =           0.2090
      STREAM LEAKAGE =   793549907.1260        STREAM LEAKAGE =          42.8086
        UZF RECHARGE =   248616201.3650          UZF RECHARGE =           9.2098
               GW ET =           0.0000                 GW ET =           0.0000
     SURFACE LEAKAGE =           0.0000       SURFACE LEAKAGE =           0.0000

            TOTAL IN =  1113347632.0141              TOTAL IN =          57.7019

          OUT:                                     OUT:
          ----                                     ----
             STORAGE =   261256434.6602               STORAGE =           6.1233
       CONSTANT HEAD =           0.0000         CONSTANT HEAD =           0.0000
               WELLS =   289080000.0000                 WELLS =          20.0000
     HEAD DEP BOUNDS =     4847411.4396       HEAD DEP BOUNDS =           0.2639
      STREAM LEAKAGE =   247985690.2350        STREAM LEAKAGE =          13.2492
        UZF RECHARGE =           0.0000          UZF RECHARGE =           0.0000
               GW ET =   310111529.9784                 GW ET =          18.0644
     SURFACE LEAKAGE =           0.0000       SURFACE LEAKAGE =           0.0000

           TOTAL OUT =  1113281066.3132             TOTAL OUT =          57.7008

            IN - OUT =       66565.7009              IN - OUT =       1.0462E-03

 PERCENT DISCREPANCY =           0.01     PERCENT DISCREPANCY =           0.00


          TIME SUMMARY AT END OF TIME STEP    15 IN STRESS PERIOD      7
                    SECONDS     MINUTES      HOURS       DAYS        YEARS
                    -----------------------------------------------------------
   TIME STEP LENGTH 3.14103E+05  5235.0      87.251      3.6354     9.95332E-03
 STRESS PERIOD TIME 2.62800E+06  43800.      730.00      30.417     8.32763E-02
         TOTAL TIME 1.83960E+07 3.06600E+05  5110.0      212.92     0.58293    
 
1
                            STRESS PERIOD NO.      8, LENGTH =   2628000.    
                            -----------------------------------------------

                              NUMBER OF TIME STEPS =    15

                               MULTIPLIER FOR DELT =     1.100

                            INITIAL TIME STEP SIZE =   82713.09    

WEL PACKAGE WARNING: CURRENT STRESS PERIOD DOES NOT CONTAIN ANY WELLS


0 WELLS

 REUSING NON-PARAMETER GHB CELLS FROM LAST STRESS PERIOD

      2 GHB CELLS

 REUSING STREAM SEGMENT DATA FROM LAST STRESS PERIOD



            AREAL INFILTRATION RATE
 READING ON UNIT   19 WITH FORMAT: (10F4.0)            

            1           2           3           4           5           6           7           8           9          10
 ........................................................................................................................
   1   0.5000E-08  0.1000E-07   0.000       0.000       0.000       0.000       0.000       0.000       0.000       0.000    
   2   0.1000E-07  0.5000E-08  0.1000E-07   0.000       0.000      0.4000E-07  0.4000E-07  0.2500E-07   0.000       0.000    
   3    0.000      0.2500E-07  0.5000E-08  0.5000E-08  0.4000E-07  0.4000E-07  0.2500E-07  0.2500E-07   0.000       0.000    
   4   0.4000E-07  0.2500E-07  0.5000E-08  0.5000E-08  0.5000E-08  0.5000E-08  0.5000E-08  0.5000E-08  0.1000E-07   0.000    
   5   0.4000E-07  0.2500E-07  0.5000E-08  0.5000E-08  0.5000E-08  0.5000E-08  0.5000E-08  0.5000E-08  0.5000E-08  0.5000E-08
   6   0.4000E-07  0.2500E-07  0.2500E-07  0.1000E-07  0.1000E-07  0.5000E-08  0.5000E-08  0.5000E-08  0.5000E-08  0.2500E-07
   7   0.4000E-07  0.2500E-07  0.2500E-07  0.1000E-07  0.1000E-07  0.5000E-08  0.5000E-08  0.1000E-07  0.1000E-07   0.000    
   8    0.000      0.2500E-07  0.2500E-07  0.1000E-07  0.1000E-07  0.5000E-08  0.5000E-08  0.1000E-07  0.2500E-07   0.000    
   9    0.000      0.2500E-07  0.2500E-07  0.1000E-07  0.1000E-07  0.5000E-08  0.5000E-08  0.1000E-07  0.2500E-07   0.000    
  10    0.000      0.2500E-07  0.2500E-07  0.1000E-07  0.1000E-07  0.5000E-08  0.5000E-08  0.1000E-07  0.2500E-07  0.4000E-07
  11    0.000      0.5000E-08  0.5000E-08  0.5000E-08  0.5000E-08  0.5000E-08  0.5000E-08  0.1000E-07  0.2500E-07   0.000    
  12   0.5000E-08  0.5000E-08  0.5000E-08  0.5000E-08  0.5000E-08  0.5000E-08  0.5000E-08  0.5000E-08  0.1000E-07   0.000    
  13   0.5000E-08  0.5000E-08  0.1000E-07  0.1000E-07  0.1000E-07  0.1000E-07  0.1000E-07  0.5000E-08  0.5000E-08   0.000    
  14    0.000      0.1000E-07  0.2500E-07  0.2500E-07  0.2500E-07  0.2500E-07  0.2500E-07  0.1000E-07  0.5000E-08   0.000    
  15    0.000       0.000      0.4000E-07  0.4000E-07  0.4000E-07  0.4000E-07   0.000       0.000       0.000       0.000    

USING ET RATE FROM PREVIOUS STRESS PERIOD. CURRENT PERIOD IS:       8

 USING ET EXTINCTION DEPTH FROM PREVIOUS STRESS PERIOD. CURRENT PERIOD IS:       8

 USING EXTINCTION WATER CONTENT FROM PREVIOUS STRESS PERIOD. CURRENT PERIOD IS:       8
 
 SOLVING FOR HEAD 

     7 ITERATIONS FOR TIME STEP   1 IN STRESS PERIOD    8

 MAXIMUM HEAD CHANGE FOR EACH ITERATION:

    HEAD CHANGE   HEAD CHANGE   HEAD CHANGE   HEAD CHANGE   HEAD CHANGE
  LAYER,ROW,COL LAYER,ROW,COL LAYER,ROW,COL LAYER,ROW,COL LAYER,ROW,COL
 ----------------------------------------------------------------------
     0.2274E-01   -0.5859E-02   -0.2402E-02    0.1109E-02    0.5386E-03
  (  1,  6,  5) (  1,  3,  6) (  1,  3,  5) (  1,  2,  7) (  1,  2,  7)
     0.2616E-03    0.1271E-03
  (  1,  2,  7) (  1,  2,  7)


 NO OUTPUT CONTROL FOR STRESS PERIOD      8   TIME STEP     1
 
 SOLVING FOR HEAD 
     7 ITERATIONS FOR TIME STEP   2 IN STRESS PERIOD    8

 MAXIMUM HEAD CHANGE FOR EACH ITERATION:

    HEAD CHANGE   HEAD CHANGE   HEAD CHANGE   HEAD CHANGE   HEAD CHANGE
  LAYER,ROW,COL LAYER,ROW,COL LAYER,ROW,COL LAYER,ROW,COL LAYER,ROW,COL
 ----------------------------------------------------------------------
     0.2425E-01    0.6824E-02    0.2488E-02    0.1208E-02    0.5865E-03
  (  1,  6,  5) (  1,  8,  4) (  1,  2,  7) (  1,  2,  7) (  1,  2,  7)
     0.2848E-03    0.1383E-03
  (  1,  2,  7) (  1,  2,  7)


 NO OUTPUT CONTROL FOR STRESS PERIOD      8   TIME STEP     2
 
 SOLVING FOR HEAD 
     7 ITERATIONS FOR TIME STEP   3 IN STRESS PERIOD    8

 MAXIMUM HEAD CHANGE FOR EACH ITERATION:

    HEAD CHANGE   HEAD CHANGE   HEAD CHANGE   HEAD CHANGE   HEAD CHANGE
  LAYER,ROW,COL LAYER,ROW,COL LAYER,ROW,COL LAYER,ROW,COL LAYER,ROW,COL
 ----------------------------------------------------------------------
     0.2686E-01    0.8960E-02    0.3002E-02    0.1237E-02    0.5974E-03
  (  1,  8,  5) (  1,  8,  4) (  1,  8,  4) (  1,  2,  7) (  1,  2,  7)
     0.2886E-03    0.1394E-03
  (  1,  2,  7) (  1,  2,  7)


 NO OUTPUT CONTROL FOR STRESS PERIOD      8   TIME STEP     3
 
 SOLVING FOR HEAD 
     7 ITERATIONS FOR TIME STEP   4 IN STRESS PERIOD    8

 MAXIMUM HEAD CHANGE FOR EACH ITERATION:

    HEAD CHANGE   HEAD CHANGE   HEAD CHANGE   HEAD CHANGE   HEAD CHANGE
  LAYER,ROW,COL LAYER,ROW,COL LAYER,ROW,COL LAYER,ROW,COL LAYER,ROW,COL
 ----------------------------------------------------------------------
     0.2924E-01    0.9801E-02    0.3283E-02    0.1298E-02    0.6236E-03
  (  1,  8,  4) (  1,  8,  4) (  1,  8,  4) (  1,  2,  7) (  1,  2,  7)
     0.2997E-03    0.1441E-03
  (  1,  2,  7) (  1,  2,  7)


 NO OUTPUT CONTROL FOR STRESS PERIOD      8   TIME STEP     4
 
 SOLVING FOR HEAD 
     7 ITERATIONS FOR TIME STEP   5 IN STRESS PERIOD    8

 MAXIMUM HEAD CHANGE FOR EACH ITERATION:

    HEAD CHANGE   HEAD CHANGE   HEAD CHANGE   HEAD CHANGE   HEAD CHANGE
  LAYER,ROW,COL LAYER,ROW,COL LAYER,ROW,COL LAYER,ROW,COL LAYER,ROW,COL
 ----------------------------------------------------------------------
     0.3195E-01    0.1071E-01    0.3587E-02    0.1340E-02    0.6440E-03
  (  1,  8,  4) (  1,  8,  4) (  1,  8,  4) (  1,  2,  7) (  1,  2,  7)
     0.3094E-03    0.1487E-03
  (  1,  2,  7) (  1,  2,  7)


 OUTPUT CONTROL FOR STRESS PERIOD      8   TIME STEP     5
    PRINT BUDGET
    SAVE BUDGET

  HEAD DEP BOUNDS   PERIOD    8   STEP   5
 BOUNDARY      1   LAYER   1   ROW    13   COL     1   RATE   -0.264107       COND    0.380000E-01
 BOUNDARY      2   LAYER   1   ROW    14   COL     9   RATE    0.208964       COND    0.380000E-01



 STREAM LISTING     PERIOD      8   STEP        5

 LAYER ROW COL. STREAM  RCH.  FLOW INTO     FLOW TO   FLOW OUT OF   OVRLND.     DIRECT     STREAM       STREAM     STREAM     STREAM   STREAMBED  STREAMBED  STREAMBED
                SEG.NO.  NO.  STRM. RCH.    AQUIFER    STRM. RCH.    RUNOFF     PRECIP       ET          HEAD       DEPTH      WIDTH   CONDCTNC.   GRADIENT  ELEVATION

   1    1    1     1     1    2.5000E+01  1.0464E+00   2.3954E+01  0.000E+00  0.000E+00  0.000E+00  1.09422E+03  1.172E+00  1.296E+01  5.831E-01  5.982E-01  1.093E+03
   1    2    2     1     2    2.3954E+01  3.0653E+00   2.0888E+01  0.000E+00  0.000E+00  0.000E+00  1.08920E+03  1.140E+00  1.253E+01  8.773E-01  1.165E+00  1.088E+03
   1    3    3     1     3    2.0888E+01  2.9039E+00   1.7984E+01  0.000E+00  0.000E+00  0.000E+00  1.08351E+03  1.091E+00  1.183E+01  7.098E-01  1.364E+00  1.082E+03
   1    3    4     1     4    1.7984E+01  2.4666E+00   1.5518E+01  0.000E+00  0.000E+00  0.000E+00  1.07845E+03  1.045E+00  1.099E+01  6.098E-01  1.348E+00  1.077E+03
   1    4    5     2     1    5.5179E+00  2.6624E+00   2.8555E+00  0.000E+00  0.000E+00  0.000E+00  1.07235E+03  4.133E-01  1.200E+01  7.800E-01  1.138E+00  1.072E+03
   1    5    6     2     2    2.8555E+00  1.9533E+00   9.0219E-01  0.000E+00  0.000E+00  0.000E+00  1.06676E+03  2.556E-01  1.200E+01  6.000E-01  1.085E+00  1.067E+03
   1    6    6     2     3    9.0219E-01  9.0219E-01   0.0000E+00  0.000E+00  0.000E+00  0.000E+00  1.06183E+03  3.703E-02  1.200E+01  6.000E-01  1.012E+00  1.062E+03
   1    7    6     2     4    0.0000E+00  0.0000E+00   0.0000E+00  0.000E+00  0.000E+00  0.000E+00  1.05708E+03  0.000E+00  1.200E+01  6.000E-01  1.000E+00  1.057E+03
   1    8    6     2     5    0.0000E+00  0.0000E+00   0.0000E+00  0.000E+00  0.000E+00  0.000E+00  1.05236E+03  0.000E+00  1.200E+01  6.000E-01  1.000E+00  1.052E+03
   1    3    5     3     1    1.0000E+01  2.8178E+00   7.1822E+00  0.000E+00  0.000E+00  0.000E+00  1.07555E+03  1.909E+00  9.636E+00  7.227E-01  1.949E+00  1.074E+03
   1    3    6     3     2    7.1822E+00  1.5735E+00   5.6086E+00  0.000E+00  0.000E+00  0.000E+00  1.07264E+03  1.727E+00  8.909E+00  6.682E-01  1.177E+00  1.071E+03
   1    3    7     3     3    5.6086E+00  6.7520E-01   4.9334E+00  0.000E+00  0.000E+00  0.000E+00  1.06987E+03  1.555E+00  8.218E+00  5.547E-01  6.086E-01  1.068E+03
   1    4    8     3     4    4.9334E+00  1.5078E+00   3.4256E+00  0.000E+00  0.000E+00  0.000E+00  1.06682E+03  1.364E+00  7.455E+00  6.709E-01  1.124E+00  1.065E+03
   1    5    8     3     5    3.4256E+00  1.5789E+00   1.8466E+00  0.000E+00  0.000E+00  0.000E+00  1.06362E+03  1.164E+00  6.655E+00  4.991E-01  1.582E+00  1.062E+03
   1    6    8     3     6    1.8466E+00  5.5980E-01   1.2868E+00  0.000E+00  0.000E+00  0.000E+00  1.06158E+03  1.036E+00  6.145E+00  1.844E-01  1.518E+00  1.061E+03
   1    5   10     4     1    1.0000E+01  9.0525E-01   9.0947E+00  0.000E+00  0.000E+00  0.000E+00  1.07835E+03  6.210E-01  1.000E+01  2.500E-01  1.207E+00  1.078E+03
   1    5    9     4     2    9.0947E+00  1.7835E+00   7.3113E+00  0.000E+00  0.000E+00  0.000E+00  1.07148E+03  5.670E-01  1.000E+01  5.000E-01  1.189E+00  1.071E+03
   1    6    8     4     3    7.3113E+00  1.2257E+00   6.0855E+00  0.000E+00  0.000E+00  0.000E+00  1.06368E+03  5.021E-01  1.000E+01  3.500E-01  1.167E+00  1.063E+03
   1    6    8     5     1    7.3724E+00  9.6566E-01   6.4067E+00  0.000E+00  0.000E+00  0.000E+00  1.05859E+03  5.895E-01  1.210E+01  4.839E-01  6.652E-01  1.058E+03
   1    7    7     5     2    6.4067E+00  1.8672E+00   4.5396E+00  0.000E+00  0.000E+00  0.000E+00  1.05404E+03  5.439E-01  1.054E+01  5.269E-01  1.181E+00  1.054E+03
   1    8    7     5     3    4.5396E+00  1.0667E+00   3.4729E+00  0.000E+00  0.000E+00  0.000E+00  1.04974E+03  4.876E-01  8.738E+00  3.058E-01  1.163E+00  1.049E+03
   1    8    6     5     4    3.4729E+00  6.5171E-01   2.8212E+00  0.000E+00  0.000E+00  0.000E+00  1.04670E+03  4.481E-01  7.560E+00  1.890E-01  1.149E+00  1.046E+03
   1    9    6     6     1    2.8212E+00  1.9533E+00   8.6785E-01  0.000E+00  0.000E+00  0.000E+00  1.04298E+03  2.556E-01  1.200E+01  6.000E-01  1.085E+00  1.043E+03
   1   10    7     6     2    8.6785E-01  8.6785E-01   0.0000E+00  0.000E+00  0.000E+00  0.000E+00  1.03822E+03  3.658E-02  1.200E+01  6.000E-01  1.012E+00  1.038E+03
   1   11    7     6     3    0.0000E+00  0.0000E+00   0.0000E+00  0.000E+00  0.000E+00  0.000E+00  1.03364E+03  0.000E+00  1.200E+01  6.000E-01  1.000E+00  1.034E+03
   1   12    7     6     4    0.0000E+00  0.0000E+00   0.0000E+00  0.000E+00  0.000E+00  0.000E+00  1.02909E+03  0.000E+00  1.200E+01  6.000E-01  2.826E-01  1.029E+03
   1   13    7     6     5    0.0000E+00 -7.8383E-01   7.8383E-01  0.000E+00  0.000E+00  0.000E+00  1.02601E+03  1.009E-01  1.200E+01  2.400E-01 -1.089E+00  1.026E+03
   1   14    9     7     1    1.5000E+02  2.0441E+00   1.4796E+02  0.000E+00  0.000E+00  0.000E+00  1.03987E+03  2.286E+00  5.529E+01  5.592E+00  1.218E-01  1.038E+03
   1   13    8     7     2    1.4796E+02  2.9862E+00   1.4497E+02  0.000E+00  0.000E+00  0.000E+00  1.03477E+03  2.272E+00  5.523E+01  6.144E+00  1.620E-01  1.032E+03
   1   13    7     7     3    1.4497E+02  2.2415E+00   1.4273E+02  0.000E+00  0.000E+00  0.000E+00  1.02968E+03  2.258E+00  5.516E+01  5.579E+00  1.339E-01  1.027E+03
   1   13    6     8     1    1.4351E+02  6.0189E-01   1.4291E+02  0.000E+00  0.000E+00  0.000E+00  1.02464E+03  2.768E+00  4.014E+01  4.090E+00  4.905E-02  1.022E+03
   1   13    5     8     2    1.4291E+02 -2.0320E+00   1.4494E+02  0.000E+00  0.000E+00  0.000E+00  1.01840E+03  2.774E+00  4.022E+01  4.098E+00 -1.653E-01  1.016E+03
   1   13    4     8     3    1.4494E+02 -3.7475E+00   1.4869E+02  0.000E+00  0.000E+00  0.000E+00  1.01217E+03  2.794E+00  4.052E+01  4.129E+00 -3.025E-01  1.009E+03
   1   13    3     8     4    1.4869E+02 -4.0256E+00   1.5272E+02  0.000E+00  0.000E+00  0.000E+00  1.00595E+03  2.822E+00  4.092E+01  4.169E+00 -3.218E-01  1.003E+03
   1   13    2     8     5    1.5272E+02 -2.0785E+00   1.5479E+02  0.000E+00  0.000E+00  0.000E+00  9.99718E+02  2.843E+00  4.122E+01  4.201E+00 -1.649E-01  9.969E+02
   1   13    1     8     6    1.5479E+02 -5.6381E-01   1.5536E+02  0.000E+00  0.000E+00  0.000E+00  9.94727E+02  2.852E+00  4.136E+01  2.529E+00 -7.432E-02  9.919E+02



 UBDSV3 SAVING "           GW ET" ON UNIT 61 AT TIME STEP 5, STRESS PERIOD 8
 UBDSV3 SAVING "    UZF RECHARGE" ON UNIT 61 AT TIME STEP 5, STRESS PERIOD 8
 UBDSV3 SAVING " SURFACE LEAKAGE" ON UNIT 61 AT TIME STEP 5, STRESS PERIOD 8
 UBDSV3 SAVING "       HORT+DUNN" ON UNIT 61 AT TIME STEP 5, STRESS PERIOD 8
 UBDSV3 SAVING "  STORAGE CHANGE" ON UNIT 61 AT TIME STEP 5, STRESS PERIOD 8


UNSATURATED ZONE PACKAGE VOLUMETRIC BUDGET FOR  TIME STEP     5 STRESS PERIOD    8
  ------------------------------------------------------------------------------



     CUMULATIVE VOLUMES      L**3       RATES FOR THIS TIME STEP      L**3/T
     ------------------                 ------------------------

           IN:                                      IN:
           ---                                      ---
        INFILTRATION =     1.2909193E+9          INFILTRATION =           42.375

          OUT:                                     OUT:
          ----                                     ----
              UZF ET =     1.4731231E+9                UZF ET =       68.6435205
        UZF RECHARGE =     2.5411861E+8          UZF RECHARGE =       12.0014781

            IN - OUT =    -4.3632248E+8              IN - OUT =      -38.2699986

          STORAGE:                                 STORAGE:
          --------                                 --------
      STORAGE CHANGE =    -4.3612220E+8        STORAGE CHANGE =      -38.2699127

 PERCENT DISCREPANCY =          -0.00     PERCENT DISCREPANCY =          -0.00




 PERCENT DISCREPANCY IS DIFFERENCE BETWEEN IN-OUT MINUS CHANGE IN STORAGE
 DIVIDED BY THE AVERAGE OF IN AND OUT TIMES 100






  -------------------------------------------------------------------------------------
  VOLUMETRIC BUDGET FOR ENTIRE MODEL AT END OF TIME STEP    5 IN STRESS PERIOD      8
  -------------------------------------------------------------------------------------

     CUMULATIVE VOLUMES      L**3       RATES FOR THIS TIME STEP      L**3/T
     ------------------                 ------------------------

           IN:                                      IN:
           ---                                      ---
             STORAGE =    68565306.1029               STORAGE =           2.3391
       CONSTANT HEAD =           0.0000         CONSTANT HEAD =           0.0000
               WELLS =           0.0000                 WELLS =           0.0000
     HEAD DEP BOUNDS =     3948081.9036       HEAD DEP BOUNDS =           0.2090
      STREAM LEAKAGE =   815185847.4686        STREAM LEAKAGE =          42.8737
        UZF RECHARGE =   254118606.9179          UZF RECHARGE =          12.0015
               GW ET =           0.0000                 GW ET =           0.0000
     SURFACE LEAKAGE =           0.0000       SURFACE LEAKAGE =           0.0000

            TOTAL IN =  1141817842.3930              TOTAL IN =          57.4233

          OUT:                                     OUT:
          ----                                     ----
             STORAGE =   273775228.5758               STORAGE =          25.8300
       CONSTANT HEAD =           0.0000         CONSTANT HEAD =           0.0000
               WELLS =   289080000.0000                 WELLS =           0.0000
     HEAD DEP BOUNDS =     4980739.8119       HEAD DEP BOUNDS =           0.2641
      STREAM LEAKAGE =   254670053.2340        STREAM LEAKAGE =          13.2312
        UZF RECHARGE =           0.0000          UZF RECHARGE =           0.0000
               GW ET =   319241259.4035                 GW ET =          18.0878
     SURFACE LEAKAGE =           0.0000       SURFACE LEAKAGE =           0.0000

           TOTAL OUT =  1141747281.0253             TOTAL OUT =          57.4132

            IN - OUT =       70561.3678              IN - OUT =       1.0125E-02

 PERCENT DISCREPANCY =           0.01     PERCENT DISCREPANCY =           0.02


          TIME SUMMARY AT END OF TIME STEP     5 IN STRESS PERIOD      8
                    SECONDS     MINUTES      HOURS       DAYS        YEARS
                    -----------------------------------------------------------
   TIME STEP LENGTH 1.21100E+05  2018.3      33.639      1.4016     3.83743E-03
 STRESS PERIOD TIME 5.04972E+05  8416.2      140.27      5.8446     1.60016E-02
         TOTAL TIME 1.89010E+07 3.15016E+05  5250.3      218.76     0.59894    
 
 
 SOLVING FOR HEAD 
     7 ITERATIONS FOR TIME STEP   6 IN STRESS PERIOD    8

 MAXIMUM HEAD CHANGE FOR EACH ITERATION:

    HEAD CHANGE   HEAD CHANGE   HEAD CHANGE   HEAD CHANGE   HEAD CHANGE
  LAYER,ROW,COL LAYER,ROW,COL LAYER,ROW,COL LAYER,ROW,COL LAYER,ROW,COL
 ----------------------------------------------------------------------
     0.3488E-01    0.1169E-01    0.3914E-02    0.1362E-02    0.6504E-03
  (  1,  8,  4) (  1,  8,  4) (  1,  8,  4) (  1,  2,  7) (  1,  2,  7)
     0.3107E-03    0.1484E-03
  (  1,  2,  7) (  1,  2,  7)


 NO OUTPUT CONTROL FOR STRESS PERIOD      8   TIME STEP     6
 
 SOLVING FOR HEAD 
     7 ITERATIONS FOR TIME STEP   7 IN STRESS PERIOD    8

 MAXIMUM HEAD CHANGE FOR EACH ITERATION:

    HEAD CHANGE   HEAD CHANGE   HEAD CHANGE   HEAD CHANGE   HEAD CHANGE
  LAYER,ROW,COL LAYER,ROW,COL LAYER,ROW,COL LAYER,ROW,COL LAYER,ROW,COL
 ----------------------------------------------------------------------
     0.3803E-01    0.1274E-01    0.4265E-02    0.1427E-02    0.6589E-03
  (  1,  8,  4) (  1,  8,  4) (  1,  8,  4) (  1,  8,  4) (  1,  2,  7)
     0.3128E-03    0.1485E-03
  (  1,  2,  7) (  1,  2,  7)


 NO OUTPUT CONTROL FOR STRESS PERIOD      8   TIME STEP     7
 
 SOLVING FOR HEAD 
     7 ITERATIONS FOR TIME STEP   8 IN STRESS PERIOD    8

 MAXIMUM HEAD CHANGE FOR EACH ITERATION:

    HEAD CHANGE   HEAD CHANGE   HEAD CHANGE   HEAD CHANGE   HEAD CHANGE
  LAYER,ROW,COL LAYER,ROW,COL LAYER,ROW,COL LAYER,ROW,COL LAYER,ROW,COL
 ----------------------------------------------------------------------
     0.4141E-01    0.1387E-01    0.4642E-02    0.1553E-02    0.6748E-03
  (  1,  8,  4) (  1,  8,  4) (  1,  8,  4) (  1,  8,  4) (  1,  2,  7)
     0.3203E-03    0.1520E-03
  (  1,  2,  7) (  1,  2,  7)


 NO OUTPUT CONTROL FOR STRESS PERIOD      8   TIME STEP     8
 
 SOLVING FOR HEAD 
     7 ITERATIONS FOR TIME STEP   9 IN STRESS PERIOD    8

 MAXIMUM HEAD CHANGE FOR EACH ITERATION:

    HEAD CHANGE   HEAD CHANGE   HEAD CHANGE   HEAD CHANGE   HEAD CHANGE
  LAYER,ROW,COL LAYER,ROW,COL LAYER,ROW,COL LAYER,ROW,COL LAYER,ROW,COL
 ----------------------------------------------------------------------
     0.4502E-01    0.1508E-01    0.5043E-02    0.1686E-02    0.5635E-03
  (  1,  8,  4) (  1,  8,  4) (  1,  8,  4) (  1,  8,  4) (  1,  8,  4)
     0.2573E-03    0.1198E-03
  (  1,  2,  7) (  1,  2,  7)


 NO OUTPUT CONTROL FOR STRESS PERIOD      8   TIME STEP     9
 
 SOLVING FOR HEAD 
     7 ITERATIONS FOR TIME STEP  10 IN STRESS PERIOD    8

 MAXIMUM HEAD CHANGE FOR EACH ITERATION:

    HEAD CHANGE   HEAD CHANGE   HEAD CHANGE   HEAD CHANGE   HEAD CHANGE
  LAYER,ROW,COL LAYER,ROW,COL LAYER,ROW,COL LAYER,ROW,COL LAYER,ROW,COL
 ----------------------------------------------------------------------
     0.4885E-01    0.1636E-01    0.5469E-02    0.1827E-02    0.6104E-03
  (  1,  8,  4) (  1,  8,  4) (  1,  8,  4) (  1,  8,  4) (  1,  8,  4)
     0.2448E-03    0.1139E-03
  (  1,  2,  7) (  1,  2,  7)


 OUTPUT CONTROL FOR STRESS PERIOD      8   TIME STEP    10
    PRINT BUDGET
    SAVE BUDGET

  HEAD DEP BOUNDS   PERIOD    8   STEP  10
 BOUNDARY      1   LAYER   1   ROW    13   COL     1   RATE   -0.264117       COND    0.380000E-01
 BOUNDARY      2   LAYER   1   ROW    14   COL     9   RATE    0.208962       COND    0.380000E-01



 STREAM LISTING     PERIOD      8   STEP       10

 LAYER ROW COL. STREAM  RCH.  FLOW INTO     FLOW TO   FLOW OUT OF   OVRLND.     DIRECT     STREAM       STREAM     STREAM     STREAM   STREAMBED  STREAMBED  STREAMBED
                SEG.NO.  NO.  STRM. RCH.    AQUIFER    STRM. RCH.    RUNOFF     PRECIP       ET          HEAD       DEPTH      WIDTH   CONDCTNC.   GRADIENT  ELEVATION

   1    1    1     1     1    2.5000E+01  1.0491E+00   2.3951E+01  0.000E+00  0.000E+00  0.000E+00  1.09422E+03  1.172E+00  1.296E+01  5.831E-01  5.998E-01  1.093E+03
   1    2    2     1     2    2.3951E+01  3.0655E+00   2.0885E+01  0.000E+00  0.000E+00  0.000E+00  1.08920E+03  1.140E+00  1.253E+01  8.773E-01  1.165E+00  1.088E+03
   1    3    3     1     3    2.0885E+01  2.9036E+00   1.7982E+01  0.000E+00  0.000E+00  0.000E+00  1.08351E+03  1.091E+00  1.183E+01  7.098E-01  1.364E+00  1.082E+03
   1    3    4     1     4    1.7982E+01  2.4663E+00   1.5515E+01  0.000E+00  0.000E+00  0.000E+00  1.07845E+03  1.045E+00  1.099E+01  6.097E-01  1.348E+00  1.077E+03
   1    4    5     2     1    5.5154E+00  2.6623E+00   2.8532E+00  0.000E+00  0.000E+00  0.000E+00  1.07235E+03  4.132E-01  1.200E+01  7.800E-01  1.138E+00  1.072E+03
   1    5    6     2     2    2.8532E+00  1.9532E+00   8.9995E-01  0.000E+00  0.000E+00  0.000E+00  1.06676E+03  2.554E-01  1.200E+01  6.000E-01  1.085E+00  1.067E+03
   1    6    6     2     3    8.9995E-01  8.9995E-01   0.0000E+00  0.000E+00  0.000E+00  0.000E+00  1.06183E+03  3.697E-02  1.200E+01  6.000E-01  1.012E+00  1.062E+03
   1    7    6     2     4    0.0000E+00  0.0000E+00   0.0000E+00  0.000E+00  0.000E+00  0.000E+00  1.05708E+03  0.000E+00  1.200E+01  6.000E-01  1.000E+00  1.057E+03
   1    8    6     2     5    0.0000E+00  0.0000E+00   0.0000E+00  0.000E+00  0.000E+00  0.000E+00  1.05236E+03  0.000E+00  1.200E+01  6.000E-01  1.000E+00  1.052E+03
   1    3    5     3     1    1.0000E+01  2.8252E+00   7.1748E+00  0.000E+00  0.000E+00  0.000E+00  1.07555E+03  1.909E+00  9.636E+00  7.227E-01  1.955E+00  1.074E+03
   1    3    6     3     2    7.1748E+00  1.6810E+00   5.4938E+00  0.000E+00  0.000E+00  0.000E+00  1.07264E+03  1.727E+00  8.909E+00  6.682E-01  1.258E+00  1.071E+03
   1    3    7     3     3    5.4938E+00  7.4106E-01   4.7528E+00  0.000E+00  0.000E+00  0.000E+00  1.06987E+03  1.555E+00  8.218E+00  5.547E-01  6.679E-01  1.068E+03
   1    4    8     3     4    4.7528E+00  1.5173E+00   3.2354E+00  0.000E+00  0.000E+00  0.000E+00  1.06682E+03  1.364E+00  7.455E+00  6.709E-01  1.131E+00  1.065E+03
   1    5    8     3     5    3.2354E+00  1.5789E+00   1.6565E+00  0.000E+00  0.000E+00  0.000E+00  1.06362E+03  1.164E+00  6.655E+00  4.991E-01  1.582E+00  1.062E+03
   1    6    8     3     6    1.6565E+00  5.5980E-01   1.0967E+00  0.000E+00  0.000E+00  0.000E+00  1.06158E+03  1.036E+00  6.145E+00  1.844E-01  1.518E+00  1.061E+03
   1    5   10     4     1    1.0000E+01  9.0525E-01   9.0947E+00  0.000E+00  0.000E+00  0.000E+00  1.07835E+03  6.210E-01  1.000E+01  2.500E-01  1.207E+00  1.078E+03
   1    5    9     4     2    9.0947E+00  1.7835E+00   7.3113E+00  0.000E+00  0.000E+00  0.000E+00  1.07148E+03  5.670E-01  1.000E+01  5.000E-01  1.189E+00  1.071E+03
   1    6    8     4     3    7.3113E+00  1.2257E+00   6.0855E+00  0.000E+00  0.000E+00  0.000E+00  1.06368E+03  5.021E-01  1.000E+01  3.500E-01  1.167E+00  1.063E+03
   1    6    8     5     1    7.1822E+00  9.4401E-01   6.2382E+00  0.000E+00  0.000E+00  0.000E+00  1.05858E+03  5.841E-01  1.191E+01  4.763E-01  6.606E-01  1.058E+03
   1    7    7     5     2    6.2382E+00  1.8332E+00   4.4050E+00  0.000E+00  0.000E+00  0.000E+00  1.05404E+03  5.386E-01  1.036E+01  5.181E-01  1.180E+00  1.054E+03
   1    8    7     5     3    4.4050E+00  1.0452E+00   3.3599E+00  0.000E+00  0.000E+00  0.000E+00  1.04973E+03  4.823E-01  8.575E+00  3.001E-01  1.161E+00  1.049E+03
   1    8    6     5     4    3.3599E+00  6.3747E-01   2.7224E+00  0.000E+00  0.000E+00  0.000E+00  1.04669E+03  4.428E-01  7.406E+00  1.852E-01  1.148E+00  1.046E+03
   1    9    6     6     1    2.7224E+00  1.9485E+00   7.7393E-01  0.000E+00  0.000E+00  0.000E+00  1.04297E+03  2.475E-01  1.200E+01  6.000E-01  1.082E+00  1.043E+03
   1   10    7     6     2    7.7393E-01  7.7393E-01   0.0000E+00  0.000E+00  0.000E+00  0.000E+00  1.03822E+03  3.415E-02  1.200E+01  6.000E-01  1.011E+00  1.038E+03
   1   11    7     6     3    0.0000E+00  0.0000E+00   0.0000E+00  0.000E+00  0.000E+00  0.000E+00  1.03364E+03  0.000E+00  1.200E+01  6.000E-01  1.000E+00  1.034E+03
   1   12    7     6     4    0.0000E+00  0.0000E+00   0.0000E+00  0.000E+00  0.000E+00  0.000E+00  1.02909E+03  0.000E+00  1.200E+01  6.000E-01  2.805E-01  1.029E+03
   1   13    7     6     5    0.0000E+00 -7.8128E-01   7.8128E-01  0.000E+00  0.000E+00  0.000E+00  1.02601E+03  1.007E-01  1.200E+01  2.400E-01 -1.085E+00  1.026E+03
   1   14    9     7     1    1.5000E+02  2.0439E+00   1.4796E+02  0.000E+00  0.000E+00  0.000E+00  1.03987E+03  2.286E+00  5.529E+01  5.592E+00  1.218E-01  1.038E+03
   1   13    8     7     2    1.4796E+02  2.9888E+00   1.4497E+02  0.000E+00  0.000E+00  0.000E+00  1.03477E+03  2.272E+00  5.523E+01  6.144E+00  1.622E-01  1.032E+03
   1   13    7     7     3    1.4497E+02  2.3009E+00   1.4267E+02  0.000E+00  0.000E+00  0.000E+00  1.02968E+03  2.258E+00  5.516E+01  5.578E+00  1.375E-01  1.027E+03
   1   13    6     8     1    1.4345E+02  6.5201E-01   1.4280E+02  0.000E+00  0.000E+00  0.000E+00  1.02464E+03  2.768E+00  4.013E+01  4.090E+00  5.314E-02  1.022E+03
   1   13    5     8     2    1.4280E+02 -2.0337E+00   1.4483E+02  0.000E+00  0.000E+00  0.000E+00  1.01840E+03  2.773E+00  4.020E+01  4.097E+00 -1.655E-01  1.016E+03
   1   13    4     8     3    1.4483E+02 -3.7767E+00   1.4861E+02  0.000E+00  0.000E+00  0.000E+00  1.01217E+03  2.794E+00  4.051E+01  4.128E+00 -3.050E-01  1.009E+03
   1   13    3     8     4    1.4861E+02 -4.0287E+00   1.5263E+02  0.000E+00  0.000E+00  0.000E+00  1.00595E+03  2.821E+00  4.091E+01  4.169E+00 -3.221E-01  1.003E+03
   1   13    2     8     5    1.5263E+02 -2.0777E+00   1.5471E+02  0.000E+00  0.000E+00  0.000E+00  9.99718E+02  2.843E+00  4.122E+01  4.200E+00 -1.649E-01  9.969E+02
   1   13    1     8     6    1.5471E+02 -5.6578E-01   1.5528E+02  0.000E+00  0.000E+00  0.000E+00  9.94727E+02  2.852E+00  4.135E+01  2.528E+00 -7.460E-02  9.919E+02



 UBDSV3 SAVING "           GW ET" ON UNIT 61 AT TIME STEP 10, STRESS PERIOD 8
 UBDSV3 SAVING "    UZF RECHARGE" ON UNIT 61 AT TIME STEP 10, STRESS PERIOD 8
 UBDSV3 SAVING " SURFACE LEAKAGE" ON UNIT 61 AT TIME STEP 10, STRESS PERIOD 8
 UBDSV3 SAVING "       HORT+DUNN" ON UNIT 61 AT TIME STEP 10, STRESS PERIOD 8
 UBDSV3 SAVING "  STORAGE CHANGE" ON UNIT 61 AT TIME STEP 10, STRESS PERIOD 8


UNSATURATED ZONE PACKAGE VOLUMETRIC BUDGET FOR  TIME STEP    10 STRESS PERIOD    8
  ------------------------------------------------------------------------------



     CUMULATIVE VOLUMES      L**3       RATES FOR THIS TIME STEP      L**3/T
     ------------------                 ------------------------

           IN:                                      IN:
           ---                                      ---
        INFILTRATION =     1.3253812E+9          INFILTRATION =           42.375

          OUT:                                     OUT:
          ----                                     ----
              UZF ET =     1.5287738E+9                UZF ET =       68.2913935
        UZF RECHARGE =     2.6356278E+8          UZF RECHARGE =       11.4568198

            IN - OUT =    -4.6695538E+8              IN - OUT =      -37.3732132

          STORAGE:                                 STORAGE:
          --------                                 --------
      STORAGE CHANGE =    -4.6675512E+8        STORAGE CHANGE =      -37.3746581

 PERCENT DISCREPANCY =          -0.00     PERCENT DISCREPANCY =           0.00




 PERCENT DISCREPANCY IS DIFFERENCE BETWEEN IN-OUT MINUS CHANGE IN STORAGE
 DIVIDED BY THE AVERAGE OF IN AND OUT TIMES 100






  -------------------------------------------------------------------------------------
  VOLUMETRIC BUDGET FOR ENTIRE MODEL AT END OF TIME STEP   10 IN STRESS PERIOD      8
  -------------------------------------------------------------------------------------

     CUMULATIVE VOLUMES      L**3       RATES FOR THIS TIME STEP      L**3/T
     ------------------                 ------------------------

           IN:                                      IN:
           ---                                      ---
             STORAGE =    70241996.1712               STORAGE =           1.8887
       CONSTANT HEAD =           0.0000         CONSTANT HEAD =           0.0000
               WELLS =           0.0000                 WELLS =           0.0000
     HEAD DEP BOUNDS =     4118023.4909       HEAD DEP BOUNDS =           0.2090
      STREAM LEAKAGE =   850109437.4440        STREAM LEAKAGE =          42.9856
        UZF RECHARGE =   263562779.4479          UZF RECHARGE =          11.4568
               GW ET =           0.0000                 GW ET =           0.0000
     SURFACE LEAKAGE =           0.0000       SURFACE LEAKAGE =           0.0000

            TOTAL IN =  1188032236.5540              TOTAL IN =          56.5401

          OUT:                                     OUT:
          ----                                     ----
             STORAGE =   294290533.1259               STORAGE =          24.9267
       CONSTANT HEAD =           0.0000         CONSTANT HEAD =           0.0000
               WELLS =   289080000.0000                 WELLS =           0.0000
     HEAD DEP BOUNDS =     5195553.6986       HEAD DEP BOUNDS =           0.2641
      STREAM LEAKAGE =   265436919.3273        STREAM LEAKAGE =          13.2639
        UZF RECHARGE =           0.0000          UZF RECHARGE =           0.0000
               GW ET =   333951096.4718                 GW ET =          18.0764
     SURFACE LEAKAGE =           0.0000       SURFACE LEAKAGE =           0.0000

           TOTAL OUT =  1187954102.6236             TOTAL OUT =          56.5311

            IN - OUT =       78133.9304              IN - OUT =       8.9914E-03

 PERCENT DISCREPANCY =           0.01     PERCENT DISCREPANCY =           0.02


          TIME SUMMARY AT END OF TIME STEP    10 IN STRESS PERIOD      8
                    SECONDS     MINUTES      HOURS       DAYS        YEARS
                    -----------------------------------------------------------
   TIME STEP LENGTH 1.95033E+05  3250.6      54.176      2.2573     6.18023E-03
 STRESS PERIOD TIME 1.31823E+06  21971.      366.18      15.257     4.17723E-02
         TOTAL TIME 1.97142E+07 3.28571E+05  5476.2      228.17     0.62471    
 
 
 SOLVING FOR HEAD 
     7 ITERATIONS FOR TIME STEP  11 IN STRESS PERIOD    8

 MAXIMUM HEAD CHANGE FOR EACH ITERATION:

    HEAD CHANGE   HEAD CHANGE   HEAD CHANGE   HEAD CHANGE   HEAD CHANGE
  LAYER,ROW,COL LAYER,ROW,COL LAYER,ROW,COL LAYER,ROW,COL LAYER,ROW,COL
 ----------------------------------------------------------------------
     0.5290E-01    0.1771E-01    0.5918E-02    0.1976E-02    0.6598E-03
  (  1,  8,  4) (  1,  8,  4) (  1,  8,  4) (  1,  8,  4) (  1,  8,  4)
     0.2316E-03    0.1070E-03
  (  1,  2,  7) (  1,  2,  7)


 NO OUTPUT CONTROL FOR STRESS PERIOD      8   TIME STEP    11
 
 SOLVING FOR HEAD 
     7 ITERATIONS FOR TIME STEP  12 IN STRESS PERIOD    8

 MAXIMUM HEAD CHANGE FOR EACH ITERATION:

    HEAD CHANGE   HEAD CHANGE   HEAD CHANGE   HEAD CHANGE   HEAD CHANGE
  LAYER,ROW,COL LAYER,ROW,COL LAYER,ROW,COL LAYER,ROW,COL LAYER,ROW,COL
 ----------------------------------------------------------------------
     0.5716E-01    0.1913E-01    0.6389E-02    0.2132E-02    0.7114E-03
  (  1,  8,  4) (  1,  8,  4) (  1,  8,  4) (  1,  8,  4) (  1,  8,  4)
     0.2371E-03    0.9800E-04
  (  1,  8,  4) (  1,  2,  7)


 NO OUTPUT CONTROL FOR STRESS PERIOD      8   TIME STEP    12
 
 SOLVING FOR HEAD 
     7 ITERATIONS FOR TIME STEP  13 IN STRESS PERIOD    8

 MAXIMUM HEAD CHANGE FOR EACH ITERATION:

    HEAD CHANGE   HEAD CHANGE   HEAD CHANGE   HEAD CHANGE   HEAD CHANGE
  LAYER,ROW,COL LAYER,ROW,COL LAYER,ROW,COL LAYER,ROW,COL LAYER,ROW,COL
 ----------------------------------------------------------------------
     0.6160E-01    0.2062E-01    0.6880E-02    0.2295E-02    0.7650E-03
  (  1,  8,  4) (  1,  8,  4) (  1,  8,  4) (  1,  8,  4) (  1,  8,  4)
     0.2548E-03    0.8742E-04
  (  1,  8,  4) (  1,  2,  7)


 NO OUTPUT CONTROL FOR STRESS PERIOD      8   TIME STEP    13
 
 SOLVING FOR HEAD 
     7 ITERATIONS FOR TIME STEP  14 IN STRESS PERIOD    8

 MAXIMUM HEAD CHANGE FOR EACH ITERATION:

    HEAD CHANGE   HEAD CHANGE   HEAD CHANGE   HEAD CHANGE   HEAD CHANGE
  LAYER,ROW,COL LAYER,ROW,COL LAYER,ROW,COL LAYER,ROW,COL LAYER,ROW,COL
 ----------------------------------------------------------------------
     0.6619E-01    0.2215E-01    0.7387E-02    0.2462E-02    0.8200E-03
  (  1,  8,  4) (  1,  8,  4) (  1,  8,  4) (  1,  8,  4) (  1,  8,  4)
     0.2729E-03    0.9126E-04
  (  1,  8,  4) (  1,  8,  4)


 NO OUTPUT CONTROL FOR STRESS PERIOD      8   TIME STEP    14
 
 SOLVING FOR HEAD 
     7 ITERATIONS FOR TIME STEP  15 IN STRESS PERIOD    8

 MAXIMUM HEAD CHANGE FOR EACH ITERATION:

    HEAD CHANGE   HEAD CHANGE   HEAD CHANGE   HEAD CHANGE   HEAD CHANGE
  LAYER,ROW,COL LAYER,ROW,COL LAYER,ROW,COL LAYER,ROW,COL LAYER,ROW,COL
 ----------------------------------------------------------------------
     0.7092E-01    0.2374E-01    0.7909E-02    0.2634E-02    0.8766E-03
  (  1,  8,  4) (  1,  8,  4) (  1,  8,  4) (  1,  8,  4) (  1,  8,  4)
     0.2914E-03    0.9745E-04
  (  1,  8,  4) (  1,  8,  4)


 OUTPUT CONTROL FOR STRESS PERIOD      8   TIME STEP    15
    PRINT BUDGET
    PRINT HEAD FOR ALL LAYERS
    SAVE HEAD FOR ALL LAYERS
    SAVE BUDGET

  HEAD DEP BOUNDS   PERIOD    8   STEP  15
 BOUNDARY      1   LAYER   1   ROW    13   COL     1   RATE   -0.263828       COND    0.380000E-01
 BOUNDARY      2   LAYER   1   ROW    14   COL     9   RATE    0.208965       COND    0.380000E-01



 STREAM LISTING     PERIOD      8   STEP       15

 LAYER ROW COL. STREAM  RCH.  FLOW INTO     FLOW TO   FLOW OUT OF   OVRLND.     DIRECT     STREAM       STREAM     STREAM     STREAM   STREAMBED  STREAMBED  STREAMBED
                SEG.NO.  NO.  STRM. RCH.    AQUIFER    STRM. RCH.    RUNOFF     PRECIP       ET          HEAD       DEPTH      WIDTH   CONDCTNC.   GRADIENT  ELEVATION

   1    1    1     1     1    2.5000E+01  1.0529E+00   2.3947E+01  0.000E+00  0.000E+00  0.000E+00  1.09422E+03  1.172E+00  1.296E+01  5.831E-01  6.020E-01  1.093E+03
   1    2    2     1     2    2.3947E+01  3.0655E+00   2.0882E+01  0.000E+00  0.000E+00  0.000E+00  1.08920E+03  1.140E+00  1.253E+01  8.772E-01  1.165E+00  1.088E+03
   1    3    3     1     3    2.0882E+01  2.9033E+00   1.7978E+01  0.000E+00  0.000E+00  0.000E+00  1.08351E+03  1.091E+00  1.183E+01  7.097E-01  1.364E+00  1.082E+03
   1    3    4     1     4    1.7978E+01  2.4660E+00   1.5512E+01  0.000E+00  0.000E+00  0.000E+00  1.07845E+03  1.045E+00  1.099E+01  6.097E-01  1.348E+00  1.077E+03
   1    4    5     2     1    5.5122E+00  2.6621E+00   2.8501E+00  0.000E+00  0.000E+00  0.000E+00  1.07235E+03  4.130E-01  1.200E+01  7.800E-01  1.138E+00  1.072E+03
   1    5    6     2     2    2.8501E+00  1.9531E+00   8.9702E-01  0.000E+00  0.000E+00  0.000E+00  1.06676E+03  2.551E-01  1.200E+01  6.000E-01  1.085E+00  1.067E+03
   1    6    6     2     3    8.9702E-01  8.9702E-01   0.0000E+00  0.000E+00  0.000E+00  0.000E+00  1.06183E+03  3.690E-02  1.200E+01  6.000E-01  1.012E+00  1.062E+03
   1    7    6     2     4    0.0000E+00  0.0000E+00   0.0000E+00  0.000E+00  0.000E+00  0.000E+00  1.05708E+03  0.000E+00  1.200E+01  6.000E-01  1.000E+00  1.057E+03
   1    8    6     2     5    0.0000E+00  0.0000E+00   0.0000E+00  0.000E+00  0.000E+00  0.000E+00  1.05236E+03  0.000E+00  1.200E+01  6.000E-01  1.000E+00  1.052E+03
   1    3    5     3     1    1.0000E+01  2.8252E+00   7.1748E+00  0.000E+00  0.000E+00  0.000E+00  1.07555E+03  1.909E+00  9.636E+00  7.227E-01  1.955E+00  1.074E+03
   1    3    6     3     2    7.1748E+00  1.7690E+00   5.4058E+00  0.000E+00  0.000E+00  0.000E+00  1.07264E+03  1.727E+00  8.909E+00  6.682E-01  1.324E+00  1.071E+03
   1    3    7     3     3    5.4058E+00  8.1267E-01   4.5931E+00  0.000E+00  0.000E+00  0.000E+00  1.06987E+03  1.555E+00  8.218E+00  5.547E-01  7.325E-01  1.068E+03
   1    4    8     3     4    4.5931E+00  1.5262E+00   3.0669E+00  0.000E+00  0.000E+00  0.000E+00  1.06682E+03  1.364E+00  7.455E+00  6.709E-01  1.137E+00  1.065E+03
   1    5    8     3     5    3.0669E+00  1.5789E+00   1.4879E+00  0.000E+00  0.000E+00  0.000E+00  1.06362E+03  1.164E+00  6.655E+00  4.991E-01  1.582E+00  1.062E+03
   1    6    8     3     6    1.4879E+00  5.5980E-01   9.2814E-01  0.000E+00  0.000E+00  0.000E+00  1.06158E+03  1.036E+00  6.145E+00  1.844E-01  1.518E+00  1.061E+03
   1    5   10     4     1    1.0000E+01  9.0525E-01   9.0947E+00  0.000E+00  0.000E+00  0.000E+00  1.07835E+03  6.210E-01  1.000E+01  2.500E-01  1.207E+00  1.078E+03
   1    5    9     4     2    9.0947E+00  1.7835E+00   7.3113E+00  0.000E+00  0.000E+00  0.000E+00  1.07148E+03  5.670E-01  1.000E+01  5.000E-01  1.189E+00  1.071E+03
   1    6    8     4     3    7.3113E+00  1.2257E+00   6.0855E+00  0.000E+00  0.000E+00  0.000E+00  1.06368E+03  5.021E-01  1.000E+01  3.500E-01  1.167E+00  1.063E+03
   1    6    8     5     1    7.0137E+00  9.2128E-01   6.0924E+00  0.000E+00  0.000E+00  0.000E+00  1.05858E+03  5.793E-01  1.174E+01  4.696E-01  6.540E-01  1.058E+03
   1    7    7     5     2    6.0924E+00  1.8036E+00   4.2888E+00  0.000E+00  0.000E+00  0.000E+00  1.05403E+03  5.339E-01  1.021E+01  5.104E-01  1.178E+00  1.054E+03
   1    8    7     5     3    4.2888E+00  1.0264E+00   3.2624E+00  0.000E+00  0.000E+00  0.000E+00  1.04973E+03  4.776E-01  8.433E+00  2.952E-01  1.159E+00  1.049E+03
   1    8    6     5     4    3.2624E+00  6.2506E-01   2.6373E+00  0.000E+00  0.000E+00  0.000E+00  1.04669E+03  4.381E-01  7.272E+00  1.818E-01  1.146E+00  1.046E+03
   1    9    6     6     1    2.6373E+00  1.9442E+00   6.9312E-01  0.000E+00  0.000E+00  0.000E+00  1.04297E+03  2.404E-01  1.200E+01  6.000E-01  1.080E+00  1.043E+03
   1   10    7     6     2    6.9312E-01  6.9312E-01   0.0000E+00  0.000E+00  0.000E+00  0.000E+00  1.03821E+03  3.196E-02  1.200E+01  6.000E-01  1.011E+00  1.038E+03
   1   11    7     6     3    0.0000E+00  0.0000E+00   0.0000E+00  0.000E+00  0.000E+00  0.000E+00  1.03364E+03  0.000E+00  1.200E+01  6.000E-01  1.000E+00  1.034E+03
   1   12    7     6     4    0.0000E+00  0.0000E+00   0.0000E+00  0.000E+00  0.000E+00  0.000E+00  1.02909E+03  0.000E+00  1.200E+01  6.000E-01  2.778E-01  1.029E+03
   1   13    7     6     5    0.0000E+00 -7.7855E-01   7.7855E-01  0.000E+00  0.000E+00  0.000E+00  1.02601E+03  1.005E-01  1.200E+01  2.400E-01 -1.081E+00  1.026E+03
   1   14    9     7     1    1.5000E+02  2.0442E+00   1.4796E+02  0.000E+00  0.000E+00  0.000E+00  1.03987E+03  2.286E+00  5.529E+01  5.592E+00  1.219E-01  1.038E+03
   1   13    8     7     2    1.4796E+02  2.9953E+00   1.4496E+02  0.000E+00  0.000E+00  0.000E+00  1.03477E+03  2.272E+00  5.523E+01  6.144E+00  1.625E-01  1.032E+03
   1   13    7     7     3    1.4496E+02  2.3644E+00   1.4260E+02  0.000E+00  0.000E+00  0.000E+00  1.02968E+03  2.258E+00  5.516E+01  5.578E+00  1.413E-01  1.027E+03
   1   13    6     8     1    1.4337E+02  6.9863E-01   1.4268E+02  0.000E+00  0.000E+00  0.000E+00  1.02464E+03  2.767E+00  4.012E+01  4.089E+00  5.696E-02  1.022E+03
   1   13    5     8     2    1.4268E+02 -2.0860E+00   1.4476E+02  0.000E+00  0.000E+00  0.000E+00  1.01840E+03  2.772E+00  4.019E+01  4.096E+00 -1.698E-01  1.016E+03
   1   13    4     8     3    1.4476E+02 -3.8167E+00   1.4858E+02  0.000E+00  0.000E+00  0.000E+00  1.01217E+03  2.793E+00  4.050E+01  4.127E+00 -3.083E-01  1.009E+03
   1   13    3     8     4    1.4858E+02 -4.0782E+00   1.5266E+02  0.000E+00  0.000E+00  0.000E+00  1.00595E+03  2.821E+00  4.091E+01  4.169E+00 -3.261E-01  1.003E+03
   1   13    2     8     5    1.5266E+02 -2.0785E+00   1.5474E+02  0.000E+00  0.000E+00  0.000E+00  9.99718E+02  2.843E+00  4.122E+01  4.200E+00 -1.649E-01  9.969E+02
   1   13    1     8     6    1.5474E+02 -5.4637E-01   1.5528E+02  0.000E+00  0.000E+00  0.000E+00  9.94727E+02  2.852E+00  4.135E+01  2.528E+00 -7.204E-02  9.919E+02



 UBDSV3 SAVING "           GW ET" ON UNIT 61 AT TIME STEP 15, STRESS PERIOD 8
 UBDSV3 SAVING "    UZF RECHARGE" ON UNIT 61 AT TIME STEP 15, STRESS PERIOD 8
 UBDSV3 SAVING " SURFACE LEAKAGE" ON UNIT 61 AT TIME STEP 15, STRESS PERIOD 8
 UBDSV3 SAVING "       HORT+DUNN" ON UNIT 61 AT TIME STEP 15, STRESS PERIOD 8
 UBDSV3 SAVING "  STORAGE CHANGE" ON UNIT 61 AT TIME STEP 15, STRESS PERIOD 8


UNSATURATED ZONE PACKAGE VOLUMETRIC BUDGET FOR  TIME STEP    15 STRESS PERIOD    8
  ------------------------------------------------------------------------------



     CUMULATIVE VOLUMES      L**3       RATES FOR THIS TIME STEP      L**3/T
     ------------------                 ------------------------

           IN:                                      IN:
           ---                                      ---
        INFILTRATION =     1380882600.0          INFILTRATION =           42.375

          OUT:                                     OUT:
          ----                                     ----
              UZF ET =     1.6168942E+9                UZF ET =       66.7391466
        UZF RECHARGE =     2.7812499E+8          UZF RECHARGE =       10.9607981

            IN - OUT =    -5.1413660E+8              IN - OUT =      -35.3249447

          STORAGE:                                 STORAGE:
          --------                                 --------
      STORAGE CHANGE =    -5.1393370E+8        STORAGE CHANGE =      -35.3228724

 PERCENT DISCREPANCY =          -0.00     PERCENT DISCREPANCY =          -0.00




 PERCENT DISCREPANCY IS DIFFERENCE BETWEEN IN-OUT MINUS CHANGE IN STORAGE
 DIVIDED BY THE AVERAGE OF IN AND OUT TIMES 100



1
              HEAD IN LAYER   1 AT END OF TIME STEP  15 IN STRESS PERIOD    8
  ---------------------------------------------------------------------------

           1       2       3       4       5       6       7       8       9      10
 ...................................................................................
   1  1092.41 1088.66 6999.00 6999.00 6999.00 6999.00 6999.00 6999.00 6999.00 6999.00
   2  1089.09 1085.70 1079.24 6999.00 6999.00 1074.03 1072.98 1070.69 6999.00 6999.00
   3  6999.00 1077.39 1074.45 1070.33 1071.24 1069.99 1068.41 1068.08 6999.00 6999.00
   4  1067.85 1068.44 1066.81 1063.36 1062.24 1060.97 1061.70 1064.54 1063.86 6999.00
   5  1063.70 1061.37 1058.88 1057.02 1056.77 1057.36 1057.28 1059.44 1062.93 1065.35
   6  1059.02 1055.46 1052.52 1051.13 1051.44 1052.80 1054.15 1056.62 1059.44 1063.69
   7  1055.37 1049.81 1046.70 1045.56 1046.20 1047.86 1050.39 1052.83 1054.21 6999.00
   8  6999.00 1042.46 1040.65 1040.02 1040.92 1042.79 1044.70 1047.25 1049.18 6999.00
   9  6999.00 1035.51 1034.65 1034.65 1035.86 1037.90 1038.90 1040.80 1043.76 6999.00
  10  6999.00 1028.46 1028.65 1029.66 1031.11 1032.92 1034.35 1036.31 1040.04 1044.39
  11  6999.00 1019.68 1021.28 1024.72 1026.78 1028.92 1030.51 1032.86 1036.31 6999.00
  12  1001.19 1008.85 1014.06 1018.88 1022.53 1025.81 1028.26 1031.10 1034.88 6999.00
  13   994.94 1000.21 1006.92 1013.09 1018.91 1024.47 1029.25 1034.28 1036.40 6999.00
  14  6999.00 1005.83 1011.52 1016.24 1021.27 1025.99 1030.27 1035.29 1039.50 6999.00
  15  6999.00 6999.00 1018.84 1021.83 1025.57 1028.55 6999.00 6999.00 6999.00 6999.00

 HEAD WILL BE SAVED ON UNIT   58 AT END OF TIME STEP    15 IN STRESS PERIOD      8



  -------------------------------------------------------------------------------------
  VOLUMETRIC BUDGET FOR ENTIRE MODEL AT END OF TIME STEP   15 IN STRESS PERIOD      8
  -------------------------------------------------------------------------------------

     CUMULATIVE VOLUMES      L**3       RATES FOR THIS TIME STEP      L**3/T
     ------------------                 ------------------------

           IN:                                      IN:
           ---                                      ---
             STORAGE =    72188842.5806               STORAGE =           1.1331
       CONSTANT HEAD =           0.0000         CONSTANT HEAD =           0.0000
               WELLS =           0.0000                 WELLS =           0.0000
     HEAD DEP BOUNDS =     4391716.8467       HEAD DEP BOUNDS =           0.2090
      STREAM LEAKAGE =   906510279.2664        STREAM LEAKAGE =          43.1026
        UZF RECHARGE =   278124988.3527          UZF RECHARGE =          10.9608
               GW ET =           0.0000                 GW ET =           0.0000
     SURFACE LEAKAGE =           0.0000       SURFACE LEAKAGE =           0.0000

            TOTAL IN =  1261215827.0463              TOTAL IN =          55.4055

          OUT:                                     OUT:
          ----                                     ----
             STORAGE =   325967516.2663               STORAGE =          23.6819
       CONSTANT HEAD =           0.0000         CONSTANT HEAD =           0.0000
               WELLS =   289080000.0000                 WELLS =           0.0000
     HEAD DEP BOUNDS =     5541268.0491       HEAD DEP BOUNDS =           0.2638
      STREAM LEAKAGE =   282922547.6662        STREAM LEAKAGE =          13.3844
        UZF RECHARGE =           0.0000          UZF RECHARGE =           0.0000
               GW ET =   357615572.3620                 GW ET =          18.0678
     SURFACE LEAKAGE =           0.0000       SURFACE LEAKAGE =           0.0000

           TOTAL OUT =  1261126904.3435             TOTAL OUT =          55.3979

            IN - OUT =       88922.7028              IN - OUT =       7.5861E-03

 PERCENT DISCREPANCY =           0.01     PERCENT DISCREPANCY =           0.01


          TIME SUMMARY AT END OF TIME STEP    15 IN STRESS PERIOD      8
                    SECONDS     MINUTES      HOURS       DAYS        YEARS
                    -----------------------------------------------------------
   TIME STEP LENGTH 3.14103E+05  5235.0      87.251      3.6354     9.95332E-03
 STRESS PERIOD TIME 2.62800E+06  43800.      730.00      30.417     8.32763E-02
         TOTAL TIME 2.10240E+07 3.50400E+05  5840.0      243.33     0.66621    
 
1
                            STRESS PERIOD NO.      9, LENGTH =   2628000.    
                            -----------------------------------------------

                              NUMBER OF TIME STEPS =    15

                               MULTIPLIER FOR DELT =     1.100

                            INITIAL TIME STEP SIZE =   82713.09    

 WEL PACKAGE STRESS PERIOD INFORMATION [BEFORE APPLICATION OF TABFILES]

 WELL NO.  LAYER   ROW   COL   STRESS RATE         
 --------------------------------------------------
      1      1      6      4  -1.0000000    
      2      1      6      5  -1.0000000    
      3      1      7      4  -1.0000000    
      4      1      7      5  -1.0000000    
      5      1      8      4  -1.0000000    
      6      1      8      5  -1.0000000    
      7      1      9      4  -1.0000000    
      8      1      9      5  -1.0000000    
      9      1     10      4  -1.0000000    
     10      1     10      5  -1.0000000    

10 WELLS

 REUSING NON-PARAMETER GHB CELLS FROM LAST STRESS PERIOD

      2 GHB CELLS

 REUSING STREAM SEGMENT DATA FROM LAST STRESS PERIOD



            AREAL INFILTRATION RATE
 READING ON UNIT   19 WITH FORMAT: (10F4.0)            

            1           2           3           4           5           6           7           8           9          10
 ........................................................................................................................
   1   0.3000E-08  0.6000E-08   0.000       0.000       0.000       0.000       0.000       0.000       0.000       0.000    
   2   0.6000E-08  0.3000E-08  0.6000E-08   0.000       0.000      0.2400E-07  0.2400E-07  0.1500E-07   0.000       0.000    
   3    0.000      0.1500E-07  0.3000E-08  0.3000E-08  0.2400E-07  0.2400E-07  0.1500E-07  0.1500E-07   0.000       0.000    
   4   0.2400E-07  0.1500E-07  0.3000E-08  0.3000E-08  0.3000E-08  0.3000E-08  0.3000E-08  0.3000E-08  0.6000E-08   0.000    
   5   0.2400E-07  0.1500E-07  0.3000E-08  0.3000E-08  0.3000E-08  0.3000E-08  0.3000E-08  0.3000E-08  0.3000E-08  0.3000E-08
   6   0.2400E-07  0.1500E-07  0.1500E-07  0.6000E-08  0.6000E-08  0.3000E-08  0.3000E-08  0.3000E-08  0.3000E-08  0.1500E-07
   7   0.2400E-07  0.1500E-07  0.1500E-07  0.6000E-08  0.6000E-08  0.3000E-08  0.3000E-08  0.6000E-08  0.6000E-08   0.000    
   8    0.000      0.1500E-07  0.1500E-07  0.6000E-08  0.6000E-08  0.3000E-08  0.3000E-08  0.6000E-08  0.1500E-07   0.000    
   9    0.000      0.1500E-07  0.1500E-07  0.6000E-08  0.6000E-08  0.3000E-08  0.3000E-08  0.6000E-08  0.1500E-07   0.000    
  10    0.000      0.1500E-07  0.1500E-07  0.6000E-08  0.6000E-08  0.3000E-08  0.3000E-08  0.6000E-08  0.1500E-07  0.2400E-07
  11    0.000      0.3000E-08  0.3000E-08  0.3000E-08  0.3000E-08  0.3000E-08  0.3000E-08  0.6000E-08  0.1500E-07   0.000    
  12   0.3000E-08  0.3000E-08  0.3000E-08  0.3000E-08  0.3000E-08  0.3000E-08  0.3000E-08  0.3000E-08  0.6000E-08   0.000    
  13   0.3000E-08  0.3000E-08  0.6000E-08  0.6000E-08  0.6000E-08  0.6000E-08  0.6000E-08  0.3000E-08  0.3000E-08   0.000    
  14    0.000      0.6000E-08  0.1500E-07  0.1500E-07  0.1500E-07  0.1500E-07  0.1500E-07  0.6000E-08  0.3000E-08   0.000    
  15    0.000       0.000      0.2400E-07  0.2400E-07  0.2400E-07  0.2400E-07   0.000       0.000       0.000       0.000    

USING ET RATE FROM PREVIOUS STRESS PERIOD. CURRENT PERIOD IS:       9

 USING ET EXTINCTION DEPTH FROM PREVIOUS STRESS PERIOD. CURRENT PERIOD IS:       9

 USING EXTINCTION WATER CONTENT FROM PREVIOUS STRESS PERIOD. CURRENT PERIOD IS:       9
 
 SOLVING FOR HEAD 

     6 ITERATIONS FOR TIME STEP   1 IN STRESS PERIOD    9

 MAXIMUM HEAD CHANGE FOR EACH ITERATION:

    HEAD CHANGE   HEAD CHANGE   HEAD CHANGE   HEAD CHANGE   HEAD CHANGE
  LAYER,ROW,COL LAYER,ROW,COL LAYER,ROW,COL LAYER,ROW,COL LAYER,ROW,COL
 ----------------------------------------------------------------------
    -0.7701E-02   -0.2671E-02    0.1001E-02    0.4550E-03    0.2069E-03
  (  1,  3,  5) (  1,  3,  5) (  1,  3,  6) (  1,  3,  6) (  1,  3,  6)
     0.9413E-04
  (  1,  3,  6)


 NO OUTPUT CONTROL FOR STRESS PERIOD      9   TIME STEP     1
 
 SOLVING FOR HEAD 
     6 ITERATIONS FOR TIME STEP   2 IN STRESS PERIOD    9

 MAXIMUM HEAD CHANGE FOR EACH ITERATION:

    HEAD CHANGE   HEAD CHANGE   HEAD CHANGE   HEAD CHANGE   HEAD CHANGE
  LAYER,ROW,COL LAYER,ROW,COL LAYER,ROW,COL LAYER,ROW,COL LAYER,ROW,COL
 ----------------------------------------------------------------------
    -0.8256E-02   -0.2841E-02    0.1075E-02    0.4895E-03    0.2229E-03
  (  1,  3,  5) (  1,  3,  5) (  1,  3,  6) (  1,  3,  6) (  1,  3,  6)
     0.1015E-03
  (  1,  3,  6)


 NO OUTPUT CONTROL FOR STRESS PERIOD      9   TIME STEP     2
 
 SOLVING FOR HEAD 
     6 ITERATIONS FOR TIME STEP   3 IN STRESS PERIOD    9

 MAXIMUM HEAD CHANGE FOR EACH ITERATION:

    HEAD CHANGE   HEAD CHANGE   HEAD CHANGE   HEAD CHANGE   HEAD CHANGE
  LAYER,ROW,COL LAYER,ROW,COL LAYER,ROW,COL LAYER,ROW,COL LAYER,ROW,COL
 ----------------------------------------------------------------------
    -0.8677E-02   -0.2994E-02    0.1035E-02    0.4715E-03    0.2150E-03
  (  1,  3,  5) (  1,  3,  5) (  1,  3,  6) (  1,  3,  6) (  1,  3,  6)
     0.9806E-04
  (  1,  3,  6)


 NO OUTPUT CONTROL FOR STRESS PERIOD      9   TIME STEP     3
 
 SOLVING FOR HEAD 
     6 ITERATIONS FOR TIME STEP   4 IN STRESS PERIOD    9

 MAXIMUM HEAD CHANGE FOR EACH ITERATION:

    HEAD CHANGE   HEAD CHANGE   HEAD CHANGE   HEAD CHANGE   HEAD CHANGE
  LAYER,ROW,COL LAYER,ROW,COL LAYER,ROW,COL LAYER,ROW,COL LAYER,ROW,COL
 ----------------------------------------------------------------------
    -0.9211E-02   -0.3147E-02    0.1144E-02    0.5202E-03    0.2366E-03
  (  1,  3,  5) (  1,  3,  5) (  1,  3,  6) (  1,  3,  6) (  1,  3,  6)
     0.1076E-03
  (  1,  3,  6)


 NO OUTPUT CONTROL FOR STRESS PERIOD      9   TIME STEP     4
 
 SOLVING FOR HEAD 
     8 ITERATIONS FOR TIME STEP   5 IN STRESS PERIOD    9

 MAXIMUM HEAD CHANGE FOR EACH ITERATION:

    HEAD CHANGE   HEAD CHANGE   HEAD CHANGE   HEAD CHANGE   HEAD CHANGE
  LAYER,ROW,COL LAYER,ROW,COL LAYER,ROW,COL LAYER,ROW,COL LAYER,ROW,COL
 ----------------------------------------------------------------------
     0.1792E-01    0.9218E-02    0.4741E-02    0.2438E-02    0.1254E-02
  (  1,  4,  1) (  1,  4,  1) (  1,  4,  1) (  1,  4,  1) (  1,  4,  1)
     0.6447E-03    0.3316E-03    0.1705E-03
  (  1,  4,  1) (  1,  4,  1) (  1,  4,  1)


 OUTPUT CONTROL FOR STRESS PERIOD      9   TIME STEP     5
    PRINT BUDGET
    SAVE BUDGET

           WELLS   PERIOD 9   STEP 5
WELL          1   LAYER          1   ROW          6   COL          4   RATE -1.0
WELL          2   LAYER          1   ROW          6   COL          5   RATE -1.0
WELL          3   LAYER          1   ROW          7   COL          4   RATE -1.0
WELL          4   LAYER          1   ROW          7   COL          5   RATE -1.0
WELL          5   LAYER          1   ROW          8   COL          4   RATE -1.0
WELL          6   LAYER          1   ROW          8   COL          5   RATE -1.0
WELL          7   LAYER          1   ROW          9   COL          4   RATE -1.0
WELL          8   LAYER          1   ROW          9   COL          5   RATE -1.0
WELL          9   LAYER          1   ROW         10   COL          4   RATE -1.0
WELL         10   LAYER          1   ROW         10   COL          5   RATE -1.0

  HEAD DEP BOUNDS   PERIOD    9   STEP   5
 BOUNDARY      1   LAYER   1   ROW    13   COL     1   RATE   -0.263704       COND    0.380000E-01
 BOUNDARY      2   LAYER   1   ROW    14   COL     9   RATE    0.208967       COND    0.380000E-01



 STREAM LISTING     PERIOD      9   STEP        5

 LAYER ROW COL. STREAM  RCH.  FLOW INTO     FLOW TO   FLOW OUT OF   OVRLND.     DIRECT     STREAM       STREAM     STREAM     STREAM   STREAMBED  STREAMBED  STREAMBED
                SEG.NO.  NO.  STRM. RCH.    AQUIFER    STRM. RCH.    RUNOFF     PRECIP       ET          HEAD       DEPTH      WIDTH   CONDCTNC.   GRADIENT  ELEVATION

   1    1    1     1     1    2.5000E+01  1.0543E+00   2.3946E+01  0.000E+00  0.000E+00  0.000E+00  1.09422E+03  1.172E+00  1.296E+01  5.831E-01  6.027E-01  1.093E+03
   1    2    2     1     2    2.3946E+01  3.0654E+00   2.0880E+01  0.000E+00  0.000E+00  0.000E+00  1.08920E+03  1.140E+00  1.253E+01  8.772E-01  1.165E+00  1.088E+03
   1    3    3     1     3    2.0880E+01  2.9032E+00   1.7977E+01  0.000E+00  0.000E+00  0.000E+00  1.08351E+03  1.091E+00  1.183E+01  7.097E-01  1.364E+00  1.082E+03
   1    3    4     1     4    1.7977E+01  2.4660E+00   1.5511E+01  0.000E+00  0.000E+00  0.000E+00  1.07845E+03  1.045E+00  1.098E+01  6.097E-01  1.348E+00  1.077E+03
   1    4    5     2     1    5.5111E+00  2.6621E+00   2.8491E+00  0.000E+00  0.000E+00  0.000E+00  1.07235E+03  4.129E-01  1.200E+01  7.800E-01  1.138E+00  1.072E+03
   1    5    6     2     2    2.8491E+00  1.9530E+00   8.9603E-01  0.000E+00  0.000E+00  0.000E+00  1.06676E+03  2.550E-01  1.200E+01  6.000E-01  1.085E+00  1.067E+03
   1    6    6     2     3    8.9603E-01  8.9603E-01   0.0000E+00  0.000E+00  0.000E+00  0.000E+00  1.06183E+03  3.687E-02  1.200E+01  6.000E-01  1.012E+00  1.062E+03
   1    7    6     2     4    0.0000E+00  0.0000E+00   0.0000E+00  0.000E+00  0.000E+00  0.000E+00  1.05708E+03  0.000E+00  1.200E+01  6.000E-01  1.000E+00  1.057E+03
   1    8    6     2     5    0.0000E+00  0.0000E+00   0.0000E+00  0.000E+00  0.000E+00  0.000E+00  1.05236E+03  0.000E+00  1.200E+01  6.000E-01  1.000E+00  1.052E+03
   1    3    5     3     1    1.0000E+01  2.8252E+00   7.1748E+00  0.000E+00  0.000E+00  0.000E+00  1.07555E+03  1.909E+00  9.636E+00  7.227E-01  1.955E+00  1.074E+03
   1    3    6     3     2    7.1748E+00  1.7372E+00   5.4376E+00  0.000E+00  0.000E+00  0.000E+00  1.07264E+03  1.727E+00  8.909E+00  6.682E-01  1.300E+00  1.071E+03
   1    3    7     3     3    5.4376E+00  8.1820E-01   4.6194E+00  0.000E+00  0.000E+00  0.000E+00  1.06987E+03  1.555E+00  8.218E+00  5.547E-01  7.375E-01  1.068E+03
   1    4    8     3     4    4.6194E+00  1.5284E+00   3.0910E+00  0.000E+00  0.000E+00  0.000E+00  1.06682E+03  1.364E+00  7.455E+00  6.709E-01  1.139E+00  1.065E+03
   1    5    8     3     5    3.0910E+00  1.5789E+00   1.5120E+00  0.000E+00  0.000E+00  0.000E+00  1.06362E+03  1.164E+00  6.655E+00  4.991E-01  1.582E+00  1.062E+03
   1    6    8     3     6    1.5120E+00  5.5980E-01   9.5225E-01  0.000E+00  0.000E+00  0.000E+00  1.06158E+03  1.036E+00  6.145E+00  1.844E-01  1.518E+00  1.061E+03
   1    5   10     4     1    1.0000E+01  9.0525E-01   9.0947E+00  0.000E+00  0.000E+00  0.000E+00  1.07835E+03  6.210E-01  1.000E+01  2.500E-01  1.207E+00  1.078E+03
   1    5    9     4     2    9.0947E+00  1.7835E+00   7.3113E+00  0.000E+00  0.000E+00  0.000E+00  1.07148E+03  5.670E-01  1.000E+01  5.000E-01  1.189E+00  1.071E+03
   1    6    8     4     3    7.3113E+00  1.2257E+00   6.0855E+00  0.000E+00  0.000E+00  0.000E+00  1.06368E+03  5.021E-01  1.000E+01  3.500E-01  1.167E+00  1.063E+03
   1    6    8     5     1    7.0378E+00  9.2036E-01   6.1174E+00  0.000E+00  0.000E+00  0.000E+00  1.05858E+03  5.800E-01  1.177E+01  4.706E-01  6.519E-01  1.058E+03
   1    7    7     5     2    6.1174E+00  1.8087E+00   4.3088E+00  0.000E+00  0.000E+00  0.000E+00  1.05403E+03  5.347E-01  1.023E+01  5.117E-01  1.178E+00  1.054E+03
   1    8    7     5     3    4.3088E+00  1.0296E+00   3.2791E+00  0.000E+00  0.000E+00  0.000E+00  1.04973E+03  4.784E-01  8.457E+00  2.960E-01  1.159E+00  1.049E+03
   1    8    6     5     4    3.2791E+00  6.2719E-01   2.6519E+00  0.000E+00  0.000E+00  0.000E+00  1.04669E+03  4.389E-01  7.295E+00  1.824E-01  1.146E+00  1.046E+03
   1    9    6     6     1    2.6519E+00  1.9450E+00   7.0698E-01  0.000E+00  0.000E+00  0.000E+00  1.04297E+03  2.416E-01  1.200E+01  6.000E-01  1.081E+00  1.043E+03
   1   10    7     6     2    7.0698E-01  7.0698E-01   0.0000E+00  0.000E+00  0.000E+00  0.000E+00  1.03821E+03  3.234E-02  1.200E+01  6.000E-01  1.011E+00  1.038E+03
   1   11    7     6     3    0.0000E+00  0.0000E+00   0.0000E+00  0.000E+00  0.000E+00  0.000E+00  1.03364E+03  0.000E+00  1.200E+01  6.000E-01  1.000E+00  1.034E+03
   1   12    7     6     4    0.0000E+00  0.0000E+00   0.0000E+00  0.000E+00  0.000E+00  0.000E+00  1.02909E+03  0.000E+00  1.200E+01  6.000E-01  2.768E-01  1.029E+03
   1   13    7     6     5    0.0000E+00 -7.7780E-01   7.7780E-01  0.000E+00  0.000E+00  0.000E+00  1.02601E+03  1.004E-01  1.200E+01  2.400E-01 -1.080E+00  1.026E+03
   1   14    9     7     1    1.5000E+02  2.0445E+00   1.4796E+02  0.000E+00  0.000E+00  0.000E+00  1.03987E+03  2.286E+00  5.529E+01  5.592E+00  1.219E-01  1.038E+03
   1   13    8     7     2    1.4796E+02  2.9977E+00   1.4496E+02  0.000E+00  0.000E+00  0.000E+00  1.03477E+03  2.272E+00  5.523E+01  6.144E+00  1.626E-01  1.032E+03
   1   13    7     7     3    1.4496E+02  2.3818E+00   1.4258E+02  0.000E+00  0.000E+00  0.000E+00  1.02968E+03  2.258E+00  5.516E+01  5.578E+00  1.423E-01  1.027E+03
   1   13    6     8     1    1.4335E+02  7.1038E-01   1.4264E+02  0.000E+00  0.000E+00  0.000E+00  1.02464E+03  2.767E+00  4.012E+01  4.088E+00  5.792E-02  1.022E+03
   1   13    5     8     2    1.4264E+02 -2.0952E+00   1.4474E+02  0.000E+00  0.000E+00  0.000E+00  1.01840E+03  2.772E+00  4.019E+01  4.096E+00 -1.705E-01  1.016E+03
   1   13    4     8     3    1.4474E+02 -3.8263E+00   1.4856E+02  0.000E+00  0.000E+00  0.000E+00  1.01217E+03  2.793E+00  4.050E+01  4.127E+00 -3.090E-01  1.009E+03
   1   13    3     8     4    1.4856E+02 -4.0857E+00   1.5265E+02  0.000E+00  0.000E+00  0.000E+00  1.00595E+03  2.821E+00  4.091E+01  4.168E+00 -3.267E-01  1.003E+03
   1   13    2     8     5    1.5265E+02 -2.0793E+00   1.5473E+02  0.000E+00  0.000E+00  0.000E+00  9.99718E+02  2.843E+00  4.122E+01  4.200E+00 -1.650E-01  9.969E+02
   1   13    1     8     6    1.5473E+02 -5.3825E-01   1.5527E+02  0.000E+00  0.000E+00  0.000E+00  9.94727E+02  2.852E+00  4.135E+01  2.528E+00 -7.097E-02  9.919E+02



 UBDSV3 SAVING "           GW ET" ON UNIT 61 AT TIME STEP 5, STRESS PERIOD 9
 UBDSV3 SAVING "    UZF RECHARGE" ON UNIT 61 AT TIME STEP 5, STRESS PERIOD 9
 UBDSV3 SAVING " SURFACE LEAKAGE" ON UNIT 61 AT TIME STEP 5, STRESS PERIOD 9
 UBDSV3 SAVING "       HORT+DUNN" ON UNIT 61 AT TIME STEP 5, STRESS PERIOD 9
 UBDSV3 SAVING "  STORAGE CHANGE" ON UNIT 61 AT TIME STEP 5, STRESS PERIOD 9


UNSATURATED ZONE PACKAGE VOLUMETRIC BUDGET FOR  TIME STEP     5 STRESS PERIOD    9
  ------------------------------------------------------------------------------



     CUMULATIVE VOLUMES      L**3       RATES FOR THIS TIME STEP      L**3/T
     ------------------                 ------------------------

           IN:                                      IN:
           ---                                      ---
        INFILTRATION =     1.3937215E+9          INFILTRATION =       25.4250000

          OUT:                                     OUT:
          ----                                     ----
              UZF ET =     1.6506249E+9                UZF ET =       66.8209938
        UZF RECHARGE =     2.8297793E+8          UZF RECHARGE =       10.3618192

            IN - OUT =    -5.3988136E+8              IN - OUT =      -51.7578129

          STORAGE:                                 STORAGE:
          --------                                 --------
      STORAGE CHANGE =    -5.3967824E+8        STORAGE CHANGE =      -51.7563300

 PERCENT DISCREPANCY =          -0.00     PERCENT DISCREPANCY =          -0.00




 PERCENT DISCREPANCY IS DIFFERENCE BETWEEN IN-OUT MINUS CHANGE IN STORAGE
 DIVIDED BY THE AVERAGE OF IN AND OUT TIMES 100






  -------------------------------------------------------------------------------------
  VOLUMETRIC BUDGET FOR ENTIRE MODEL AT END OF TIME STEP    5 IN STRESS PERIOD      9
  -------------------------------------------------------------------------------------

     CUMULATIVE VOLUMES      L**3       RATES FOR THIS TIME STEP      L**3/T
     ------------------                 ------------------------

           IN:                                      IN:
           ---                                      ---
             STORAGE =    72649867.3895               STORAGE =           0.7046
       CONSTANT HEAD =           0.0000         CONSTANT HEAD =           0.0000
               WELLS =           0.0000                 WELLS =           0.0000
     HEAD DEP BOUNDS =     4497238.8131       HEAD DEP BOUNDS =           0.2090
      STREAM LEAKAGE =   928285957.6764        STREAM LEAKAGE =          43.1343
        UZF RECHARGE =   282977927.3383          UZF RECHARGE =          10.3618
               GW ET =           0.0000                 GW ET =           0.0000
     SURFACE LEAKAGE =           0.0000       SURFACE LEAKAGE =           0.0000

            TOTAL IN =  1288410991.2173              TOTAL IN =          54.4097

          OUT:                                     OUT:
          ----                                     ----
             STORAGE =   332086020.9492               STORAGE =          12.6665
       CONSTANT HEAD =           0.0000         CONSTANT HEAD =           0.0000
               WELLS =   294129716.5926                 WELLS =          10.0000
     HEAD DEP BOUNDS =     5674455.3411       HEAD DEP BOUNDS =           0.2637
      STREAM LEAKAGE =   289687018.0317        STREAM LEAKAGE =          13.4025
        UZF RECHARGE =           0.0000          UZF RECHARGE =           0.0000
               GW ET =   366739991.1478                 GW ET =          18.0734
     SURFACE LEAKAGE =           0.0000       SURFACE LEAKAGE =           0.0000

           TOTAL OUT =  1288317202.0624             TOTAL OUT =          54.4061

            IN - OUT =       93789.1549              IN - OUT =       3.6218E-03

 PERCENT DISCREPANCY =           0.01     PERCENT DISCREPANCY =           0.01


          TIME SUMMARY AT END OF TIME STEP     5 IN STRESS PERIOD      9
                    SECONDS     MINUTES      HOURS       DAYS        YEARS
                    -----------------------------------------------------------
   TIME STEP LENGTH 1.21100E+05  2018.3      33.639      1.4016     3.83743E-03
 STRESS PERIOD TIME 5.04972E+05  8416.2      140.27      5.8446     1.60016E-02
         TOTAL TIME 2.15290E+07 3.58816E+05  5980.3      249.18     0.68221    
 
 
 SOLVING FOR HEAD 
     9 ITERATIONS FOR TIME STEP   6 IN STRESS PERIOD    9

 MAXIMUM HEAD CHANGE FOR EACH ITERATION:

    HEAD CHANGE   HEAD CHANGE   HEAD CHANGE   HEAD CHANGE   HEAD CHANGE
  LAYER,ROW,COL LAYER,ROW,COL LAYER,ROW,COL LAYER,ROW,COL LAYER,ROW,COL
 ----------------------------------------------------------------------
     0.3241E-01    0.1655E-01    0.8449E-02    0.4313E-02    0.2202E-02
  (  1,  4,  1) (  1,  4,  1) (  1,  4,  1) (  1,  4,  1) (  1,  4,  1)
     0.1124E-02    0.5740E-03    0.2930E-03    0.1496E-03
  (  1,  4,  1) (  1,  4,  1) (  1,  4,  1) (  1,  4,  1)


 NO OUTPUT CONTROL FOR STRESS PERIOD      9   TIME STEP     6
 
 SOLVING FOR HEAD 
     9 ITERATIONS FOR TIME STEP   7 IN STRESS PERIOD    9

 MAXIMUM HEAD CHANGE FOR EACH ITERATION:

    HEAD CHANGE   HEAD CHANGE   HEAD CHANGE   HEAD CHANGE   HEAD CHANGE
  LAYER,ROW,COL LAYER,ROW,COL LAYER,ROW,COL LAYER,ROW,COL LAYER,ROW,COL
 ----------------------------------------------------------------------
     0.3389E-01    0.1730E-01    0.8827E-02    0.4505E-02    0.2299E-02
  (  1,  4,  1) (  1,  4,  1) (  1,  4,  1) (  1,  4,  1) (  1,  4,  1)
     0.1173E-02    0.5987E-03    0.3055E-03    0.1559E-03
  (  1,  4,  1) (  1,  4,  1) (  1,  4,  1) (  1,  4,  1)


 NO OUTPUT CONTROL FOR STRESS PERIOD      9   TIME STEP     7
 
 SOLVING FOR HEAD 
     9 ITERATIONS FOR TIME STEP   8 IN STRESS PERIOD    9

 MAXIMUM HEAD CHANGE FOR EACH ITERATION:

    HEAD CHANGE   HEAD CHANGE   HEAD CHANGE   HEAD CHANGE   HEAD CHANGE
  LAYER,ROW,COL LAYER,ROW,COL LAYER,ROW,COL LAYER,ROW,COL LAYER,ROW,COL
 ----------------------------------------------------------------------
     0.3682E-01    0.1878E-01    0.9583E-02    0.4835E-02    0.2426E-02
  (  1,  4,  1) (  1,  4,  1) (  1,  4,  1) (  1,  4,  1) (  1,  4,  1)
     0.1217E-02    0.6106E-03    0.3063E-03    0.1537E-03
  (  1,  4,  1) (  1,  4,  1) (  1,  4,  1) (  1,  4,  1)


 NO OUTPUT CONTROL FOR STRESS PERIOD      9   TIME STEP     8
 
 SOLVING FOR HEAD 
     9 ITERATIONS FOR TIME STEP   9 IN STRESS PERIOD    9

 MAXIMUM HEAD CHANGE FOR EACH ITERATION:

    HEAD CHANGE   HEAD CHANGE   HEAD CHANGE   HEAD CHANGE   HEAD CHANGE
  LAYER,ROW,COL LAYER,ROW,COL LAYER,ROW,COL LAYER,ROW,COL LAYER,ROW,COL
 ----------------------------------------------------------------------
     0.3517E-01    0.1764E-01    0.8845E-02    0.4436E-02    0.2224E-02
  (  1,  4,  1) (  1,  4,  1) (  1,  4,  1) (  1,  4,  1) (  1,  4,  1)
     0.1116E-02    0.5594E-03    0.2805E-03    0.1407E-03
  (  1,  4,  1) (  1,  4,  1) (  1,  4,  1) (  1,  4,  1)


 NO OUTPUT CONTROL FOR STRESS PERIOD      9   TIME STEP     9
 
 SOLVING FOR HEAD 
     9 ITERATIONS FOR TIME STEP  10 IN STRESS PERIOD    9

 MAXIMUM HEAD CHANGE FOR EACH ITERATION:

    HEAD CHANGE   HEAD CHANGE   HEAD CHANGE   HEAD CHANGE   HEAD CHANGE
  LAYER,ROW,COL LAYER,ROW,COL LAYER,ROW,COL LAYER,ROW,COL LAYER,ROW,COL
 ----------------------------------------------------------------------
     0.3813E-01    0.1911E-01    0.9581E-02    0.4802E-02    0.2407E-02
  (  1,  4,  1) (  1,  4,  1) (  1,  4,  1) (  1,  4,  1) (  1,  4,  1)
     0.1206E-02    0.6047E-03    0.3031E-03    0.1519E-03
  (  1,  4,  1) (  1,  4,  1) (  1,  4,  1) (  1,  4,  1)


 OUTPUT CONTROL FOR STRESS PERIOD      9   TIME STEP    10
    PRINT BUDGET
    SAVE BUDGET

           WELLS   PERIOD 9   STEP 10
WELL          1   LAYER          1   ROW          6   COL          4   RATE -1.0
WELL          2   LAYER          1   ROW          6   COL          5   RATE -1.0
WELL          3   LAYER          1   ROW          7   COL          4   RATE -1.0
WELL          4   LAYER          1   ROW          7   COL          5   RATE -1.0
WELL          5   LAYER          1   ROW          8   COL          4   RATE -1.0
WELL          6   LAYER          1   ROW          8   COL          5   RATE -1.0
WELL          7   LAYER          1   ROW          9   COL          4   RATE -1.0
WELL          8   LAYER          1   ROW          9   COL          5   RATE -1.0
WELL          9   LAYER          1   ROW         10   COL          4   RATE -1.0
WELL         10   LAYER          1   ROW         10   COL          5   RATE -1.0

  HEAD DEP BOUNDS   PERIOD    9   STEP  10
 BOUNDARY      1   LAYER   1   ROW    13   COL     1   RATE   -0.263529       COND    0.380000E-01
 BOUNDARY      2   LAYER   1   ROW    14   COL     9   RATE    0.208972       COND    0.380000E-01



 STREAM LISTING     PERIOD      9   STEP       10

 LAYER ROW COL. STREAM  RCH.  FLOW INTO     FLOW TO   FLOW OUT OF   OVRLND.     DIRECT     STREAM       STREAM     STREAM     STREAM   STREAMBED  STREAMBED  STREAMBED
                SEG.NO.  NO.  STRM. RCH.    AQUIFER    STRM. RCH.    RUNOFF     PRECIP       ET          HEAD       DEPTH      WIDTH   CONDCTNC.   GRADIENT  ELEVATION

   1    1    1     1     1    2.5000E+01  1.0562E+00   2.3944E+01  0.000E+00  0.000E+00  0.000E+00  1.09422E+03  1.172E+00  1.296E+01  5.831E-01  6.038E-01  1.093E+03
   1    2    2     1     2    2.3944E+01  3.0654E+00   2.0878E+01  0.000E+00  0.000E+00  0.000E+00  1.08920E+03  1.140E+00  1.253E+01  8.771E-01  1.165E+00  1.088E+03
   1    3    3     1     3    2.0878E+01  2.9031E+00   1.7975E+01  0.000E+00  0.000E+00  0.000E+00  1.08351E+03  1.091E+00  1.183E+01  7.097E-01  1.364E+00  1.082E+03
   1    3    4     1     4    1.7975E+01  2.4658E+00   1.5510E+01  0.000E+00  0.000E+00  0.000E+00  1.07845E+03  1.045E+00  1.098E+01  6.096E-01  1.348E+00  1.077E+03
   1    4    5     2     1    5.5095E+00  2.6620E+00   2.8475E+00  0.000E+00  0.000E+00  0.000E+00  1.07235E+03  4.128E-01  1.200E+01  7.800E-01  1.138E+00  1.072E+03
   1    5    6     2     2    2.8475E+00  1.9529E+00   8.9459E-01  0.000E+00  0.000E+00  0.000E+00  1.06676E+03  2.549E-01  1.200E+01  6.000E-01  1.085E+00  1.067E+03
   1    6    6     2     3    8.9459E-01  8.9459E-01   0.0000E+00  0.000E+00  0.000E+00  0.000E+00  1.06183E+03  3.684E-02  1.200E+01  6.000E-01  1.012E+00  1.062E+03
   1    7    6     2     4    0.0000E+00  0.0000E+00   0.0000E+00  0.000E+00  0.000E+00  0.000E+00  1.05708E+03  0.000E+00  1.200E+01  6.000E-01  1.000E+00  1.057E+03
   1    8    6     2     5    0.0000E+00  0.0000E+00   0.0000E+00  0.000E+00  0.000E+00  0.000E+00  1.05236E+03  0.000E+00  1.200E+01  6.000E-01  1.000E+00  1.052E+03
   1    3    5     3     1    1.0000E+01  2.8252E+00   7.1748E+00  0.000E+00  0.000E+00  0.000E+00  1.07555E+03  1.909E+00  9.636E+00  7.227E-01  1.955E+00  1.074E+03
   1    3    6     3     2    7.1748E+00  1.7014E+00   5.4734E+00  0.000E+00  0.000E+00  0.000E+00  1.07264E+03  1.727E+00  8.909E+00  6.682E-01  1.273E+00  1.071E+03
   1    3    7     3     3    5.4734E+00  7.9813E-01   4.6753E+00  0.000E+00  0.000E+00  0.000E+00  1.06987E+03  1.555E+00  8.218E+00  5.547E-01  7.194E-01  1.068E+03
   1    4    8     3     4    4.6753E+00  1.5328E+00   3.1425E+00  0.000E+00  0.000E+00  0.000E+00  1.06682E+03  1.364E+00  7.455E+00  6.709E-01  1.142E+00  1.065E+03
   1    5    8     3     5    3.1425E+00  1.5789E+00   1.5635E+00  0.000E+00  0.000E+00  0.000E+00  1.06362E+03  1.164E+00  6.655E+00  4.991E-01  1.582E+00  1.062E+03
   1    6    8     3     6    1.5635E+00  5.5980E-01   1.0038E+00  0.000E+00  0.000E+00  0.000E+00  1.06158E+03  1.036E+00  6.145E+00  1.844E-01  1.518E+00  1.061E+03
   1    5   10     4     1    1.0000E+01  9.0525E-01   9.0947E+00  0.000E+00  0.000E+00  0.000E+00  1.07835E+03  6.210E-01  1.000E+01  2.500E-01  1.207E+00  1.078E+03
   1    5    9     4     2    9.0947E+00  1.7835E+00   7.3113E+00  0.000E+00  0.000E+00  0.000E+00  1.07148E+03  5.670E-01  1.000E+01  5.000E-01  1.189E+00  1.071E+03
   1    6    8     4     3    7.3113E+00  1.2257E+00   6.0855E+00  0.000E+00  0.000E+00  0.000E+00  1.06368E+03  5.021E-01  1.000E+01  3.500E-01  1.167E+00  1.063E+03
   1    6    8     5     1    7.0893E+00  9.1904E-01   6.1703E+00  0.000E+00  0.000E+00  0.000E+00  1.05858E+03  5.816E-01  1.182E+01  4.729E-01  6.478E-01  1.058E+03
   1    7    7     5     2    6.1703E+00  1.8194E+00   4.3508E+00  0.000E+00  0.000E+00  0.000E+00  1.05404E+03  5.364E-01  1.029E+01  5.145E-01  1.179E+00  1.054E+03
   1    8    7     5     3    4.3508E+00  1.0364E+00   3.3144E+00  0.000E+00  0.000E+00  0.000E+00  1.04973E+03  4.801E-01  8.509E+00  2.978E-01  1.160E+00  1.049E+03
   1    8    6     5     4    3.3144E+00  6.3169E-01   2.6827E+00  0.000E+00  0.000E+00  0.000E+00  1.04669E+03  4.406E-01  7.344E+00  1.836E-01  1.147E+00  1.046E+03
   1    9    6     6     1    2.6827E+00  1.9465E+00   7.3622E-01  0.000E+00  0.000E+00  0.000E+00  1.04297E+03  2.442E-01  1.200E+01  6.000E-01  1.081E+00  1.043E+03
   1   10    7     6     2    7.3622E-01  7.3622E-01   0.0000E+00  0.000E+00  0.000E+00  0.000E+00  1.03821E+03  3.314E-02  1.200E+01  6.000E-01  1.011E+00  1.038E+03
   1   11    7     6     3    0.0000E+00  0.0000E+00   0.0000E+00  0.000E+00  0.000E+00  0.000E+00  1.03364E+03  0.000E+00  1.200E+01  6.000E-01  1.000E+00  1.034E+03
   1   12    7     6     4    0.0000E+00  0.0000E+00   0.0000E+00  0.000E+00  0.000E+00  0.000E+00  1.02909E+03  0.000E+00  1.200E+01  6.000E-01  2.752E-01  1.029E+03
   1   13    7     6     5    0.0000E+00 -7.7700E-01   7.7700E-01  0.000E+00  0.000E+00  0.000E+00  1.02601E+03  1.004E-01  1.200E+01  2.400E-01 -1.079E+00  1.026E+03
   1   14    9     7     1    1.5000E+02  2.0452E+00   1.4795E+02  0.000E+00  0.000E+00  0.000E+00  1.03987E+03  2.286E+00  5.529E+01  5.592E+00  1.219E-01  1.038E+03
   1   13    8     7     2    1.4795E+02  3.0009E+00   1.4495E+02  0.000E+00  0.000E+00  0.000E+00  1.03477E+03  2.272E+00  5.523E+01  6.144E+00  1.628E-01  1.032E+03
   1   13    7     7     3    1.4495E+02  2.4002E+00   1.4255E+02  0.000E+00  0.000E+00  0.000E+00  1.02968E+03  2.258E+00  5.516E+01  5.578E+00  1.434E-01  1.027E+03
   1   13    6     8     1    1.4333E+02  7.2181E-01   1.4261E+02  0.000E+00  0.000E+00  0.000E+00  1.02464E+03  2.767E+00  4.012E+01  4.088E+00  5.886E-02  1.022E+03
   1   13    5     8     2    1.4261E+02 -2.0935E+00   1.4470E+02  0.000E+00  0.000E+00  0.000E+00  1.01840E+03  2.772E+00  4.019E+01  4.095E+00 -1.704E-01  1.016E+03
   1   13    4     8     3    1.4470E+02 -3.8038E+00   1.4851E+02  0.000E+00  0.000E+00  0.000E+00  1.01217E+03  2.793E+00  4.049E+01  4.127E+00 -3.073E-01  1.009E+03
   1   13    3     8     4    1.4851E+02 -4.0782E+00   1.5258E+02  0.000E+00  0.000E+00  0.000E+00  1.00595E+03  2.821E+00  4.090E+01  4.168E+00 -3.262E-01  1.003E+03
   1   13    2     8     5    1.5258E+02 -2.0808E+00   1.5467E+02  0.000E+00  0.000E+00  0.000E+00  9.99717E+02  2.842E+00  4.121E+01  4.200E+00 -1.652E-01  9.969E+02
   1   13    1     8     6    1.5467E+02 -5.2776E-01   1.5519E+02  0.000E+00  0.000E+00  0.000E+00  9.94726E+02  2.851E+00  4.134E+01  2.528E+00 -6.959E-02  9.919E+02



 UBDSV3 SAVING "           GW ET" ON UNIT 61 AT TIME STEP 10, STRESS PERIOD 9
 UBDSV3 SAVING "    UZF RECHARGE" ON UNIT 61 AT TIME STEP 10, STRESS PERIOD 9
 UBDSV3 SAVING " SURFACE LEAKAGE" ON UNIT 61 AT TIME STEP 10, STRESS PERIOD 9
 UBDSV3 SAVING "       HORT+DUNN" ON UNIT 61 AT TIME STEP 10, STRESS PERIOD 9
 UBDSV3 SAVING "  STORAGE CHANGE" ON UNIT 61 AT TIME STEP 10, STRESS PERIOD 9


UNSATURATED ZONE PACKAGE VOLUMETRIC BUDGET FOR  TIME STEP    10 STRESS PERIOD    9
  ------------------------------------------------------------------------------



     CUMULATIVE VOLUMES      L**3       RATES FOR THIS TIME STEP      L**3/T
     ------------------                 ------------------------

           IN:                                      IN:
           ---                                      ---
        INFILTRATION =     1.4143987E+9          INFILTRATION =       25.4250000

          OUT:                                     OUT:
          ----                                     ----
              UZF ET =     1.7046987E+9                UZF ET =       65.9282073
        UZF RECHARGE =     2.9185690E+8          UZF RECHARGE =       10.5630463

            IN - OUT =    -5.8215692E+8              IN - OUT =      -51.0662536

          STORAGE:                                 STORAGE:
          --------                                 --------
      STORAGE CHANGE =    -5.8195179E+8        STORAGE CHANGE =      -51.0644328

 PERCENT DISCREPANCY =          -0.00     PERCENT DISCREPANCY =          -0.00




 PERCENT DISCREPANCY IS DIFFERENCE BETWEEN IN-OUT MINUS CHANGE IN STORAGE
 DIVIDED BY THE AVERAGE OF IN AND OUT TIMES 100






  -------------------------------------------------------------------------------------
  VOLUMETRIC BUDGET FOR ENTIRE MODEL AT END OF TIME STEP   10 IN STRESS PERIOD      9
  -------------------------------------------------------------------------------------

     CUMULATIVE VOLUMES      L**3       RATES FOR THIS TIME STEP      L**3/T
     ------------------                 ------------------------

           IN:                                      IN:
           ---                                      ---
             STORAGE =    73084493.8057               STORAGE =           0.6449
       CONSTANT HEAD =           0.0000         CONSTANT HEAD =           0.0000
               WELLS =           0.0000                 WELLS =           0.0000
     HEAD DEP BOUNDS =     4667185.8380       HEAD DEP BOUNDS =           0.2090
      STREAM LEAKAGE =   963383035.7104        STREAM LEAKAGE =          43.1682
        UZF RECHARGE =   291856899.8782          UZF RECHARGE =          10.5630
               GW ET =           0.0000                 GW ET =           0.0000
     SURFACE LEAKAGE =           0.0000       SURFACE LEAKAGE =           0.0000

            TOTAL IN =  1332991615.2323              TOTAL IN =          54.5851

          OUT:                                     OUT:
          ----                                     ----
             STORAGE =   342699294.5063               STORAGE =          12.8171
       CONSTANT HEAD =           0.0000         CONSTANT HEAD =           0.0000
               WELLS =   302262335.6622                 WELLS =          10.0000
     HEAD DEP BOUNDS =     5888827.8789       HEAD DEP BOUNDS =           0.2635
      STREAM LEAKAGE =   300576716.4237        STREAM LEAKAGE =          13.3611
        UZF RECHARGE =           0.0000          UZF RECHARGE =           0.0000
               GW ET =   381468922.5660                 GW ET =          18.1415
     SURFACE LEAKAGE =           0.0000       SURFACE LEAKAGE =           0.0000

           TOTAL OUT =  1332896097.0371             TOTAL OUT =          54.5832

            IN - OUT =       95518.1952              IN - OUT =       1.8213E-03

 PERCENT DISCREPANCY =           0.01     PERCENT DISCREPANCY =           0.00


          TIME SUMMARY AT END OF TIME STEP    10 IN STRESS PERIOD      9
                    SECONDS     MINUTES      HOURS       DAYS        YEARS
                    -----------------------------------------------------------
   TIME STEP LENGTH 1.95033E+05  3250.6      54.176      2.2573     6.18023E-03
 STRESS PERIOD TIME 1.31823E+06  21971.      366.18      15.257     4.17723E-02
         TOTAL TIME 2.23422E+07 3.72371E+05  6206.2      258.59     0.70798    
 
 
 SOLVING FOR HEAD 
     9 ITERATIONS FOR TIME STEP  11 IN STRESS PERIOD    9

 MAXIMUM HEAD CHANGE FOR EACH ITERATION:

    HEAD CHANGE   HEAD CHANGE   HEAD CHANGE   HEAD CHANGE   HEAD CHANGE
  LAYER,ROW,COL LAYER,ROW,COL LAYER,ROW,COL LAYER,ROW,COL LAYER,ROW,COL
 ----------------------------------------------------------------------
     0.4036E-01    0.2022E-01    0.1013E-01    0.5075E-02    0.2542E-02
  (  1,  4,  1) (  1,  4,  1) (  1,  4,  1) (  1,  4,  1) (  1,  4,  1)
     0.1274E-02    0.6380E-03    0.3196E-03    0.1601E-03
  (  1,  4,  1) (  1,  4,  1) (  1,  4,  1) (  1,  4,  1)


 NO OUTPUT CONTROL FOR STRESS PERIOD      9   TIME STEP    11
 
 SOLVING FOR HEAD 
     9 ITERATIONS FOR TIME STEP  12 IN STRESS PERIOD    9

 MAXIMUM HEAD CHANGE FOR EACH ITERATION:

    HEAD CHANGE   HEAD CHANGE   HEAD CHANGE   HEAD CHANGE   HEAD CHANGE
  LAYER,ROW,COL LAYER,ROW,COL LAYER,ROW,COL LAYER,ROW,COL LAYER,ROW,COL
 ----------------------------------------------------------------------
     0.4186E-01    0.2080E-01    0.1033E-01    0.5134E-02    0.2550E-02
  (  1,  4,  1) (  1,  4,  1) (  1,  4,  1) (  1,  4,  1) (  1,  4,  1)
     0.1267E-02    0.6294E-03    0.3126E-03    0.1553E-03
  (  1,  4,  1) (  1,  4,  1) (  1,  4,  1) (  1,  4,  1)


 NO OUTPUT CONTROL FOR STRESS PERIOD      9   TIME STEP    12
 
 SOLVING FOR HEAD 
     9 ITERATIONS FOR TIME STEP  13 IN STRESS PERIOD    9

 MAXIMUM HEAD CHANGE FOR EACH ITERATION:

    HEAD CHANGE   HEAD CHANGE   HEAD CHANGE   HEAD CHANGE   HEAD CHANGE
  LAYER,ROW,COL LAYER,ROW,COL LAYER,ROW,COL LAYER,ROW,COL LAYER,ROW,COL
 ----------------------------------------------------------------------
     0.4306E-01    0.2123E-01    0.1045E-01    0.5146E-02    0.2533E-02
  (  1,  4,  1) (  1,  4,  1) (  1,  4,  1) (  1,  4,  1) (  1,  4,  1)
     0.1247E-02    0.6136E-03    0.3020E-03    0.1486E-03
  (  1,  4,  1) (  1,  4,  1) (  1,  4,  1) (  1,  4,  1)


 NO OUTPUT CONTROL FOR STRESS PERIOD      9   TIME STEP    13
 
 SOLVING FOR HEAD 
     9 ITERATIONS FOR TIME STEP  14 IN STRESS PERIOD    9

 MAXIMUM HEAD CHANGE FOR EACH ITERATION:

    HEAD CHANGE   HEAD CHANGE   HEAD CHANGE   HEAD CHANGE   HEAD CHANGE
  LAYER,ROW,COL LAYER,ROW,COL LAYER,ROW,COL LAYER,ROW,COL LAYER,ROW,COL
 ----------------------------------------------------------------------
     0.4519E-01    0.2223E-01    0.1094E-01    0.5380E-02    0.2646E-02
  (  1,  4,  1) (  1,  4,  1) (  1,  4,  1) (  1,  4,  1) (  1,  4,  1)
     0.1302E-02    0.6401E-03    0.3148E-03    0.1548E-03
  (  1,  4,  1) (  1,  4,  1) (  1,  4,  1) (  1,  4,  1)


 NO OUTPUT CONTROL FOR STRESS PERIOD      9   TIME STEP    14
 
 SOLVING FOR HEAD 
    10 ITERATIONS FOR TIME STEP  15 IN STRESS PERIOD    9

 MAXIMUM HEAD CHANGE FOR EACH ITERATION:

    HEAD CHANGE   HEAD CHANGE   HEAD CHANGE   HEAD CHANGE   HEAD CHANGE
  LAYER,ROW,COL LAYER,ROW,COL LAYER,ROW,COL LAYER,ROW,COL LAYER,ROW,COL
 ----------------------------------------------------------------------
     0.6515E-01    0.3254E-01    0.1625E-01    0.8115E-02    0.4052E-02
  (  1,  6,  1) (  1,  6,  1) (  1,  6,  1) (  1,  6,  1) (  1,  6,  1)
     0.2024E-02    0.1010E-02    0.5045E-03    0.2520E-03    0.1258E-03
  (  1,  6,  1) (  1,  6,  1) (  1,  6,  1) (  1,  6,  1) (  1,  6,  1)


 OUTPUT CONTROL FOR STRESS PERIOD      9   TIME STEP    15
    PRINT BUDGET
    PRINT HEAD FOR ALL LAYERS
    SAVE HEAD FOR ALL LAYERS
    SAVE BUDGET

           WELLS   PERIOD 9   STEP 15
WELL          1   LAYER          1   ROW          6   COL          4   RATE -1.0
WELL          2   LAYER          1   ROW          6   COL          5   RATE -1.0
WELL          3   LAYER          1   ROW          7   COL          4   RATE -1.0
WELL          4   LAYER          1   ROW          7   COL          5   RATE -1.0
WELL          5   LAYER          1   ROW          8   COL          4   RATE -1.0
WELL          6   LAYER          1   ROW          8   COL          5   RATE -1.0
WELL          7   LAYER          1   ROW          9   COL          4   RATE -1.0
WELL          8   LAYER          1   ROW          9   COL          5   RATE -1.0
WELL          9   LAYER          1   ROW         10   COL          4   RATE -1.0
WELL         10   LAYER          1   ROW         10   COL          5   RATE -1.0

  HEAD DEP BOUNDS   PERIOD    9   STEP  15
 BOUNDARY      1   LAYER   1   ROW    13   COL     1   RATE   -0.263310       COND    0.380000E-01
 BOUNDARY      2   LAYER   1   ROW    14   COL     9   RATE    0.208980       COND    0.380000E-01



 STREAM LISTING     PERIOD      9   STEP       15

 LAYER ROW COL. STREAM  RCH.  FLOW INTO     FLOW TO   FLOW OUT OF   OVRLND.     DIRECT     STREAM       STREAM     STREAM     STREAM   STREAMBED  STREAMBED  STREAMBED
                SEG.NO.  NO.  STRM. RCH.    AQUIFER    STRM. RCH.    RUNOFF     PRECIP       ET          HEAD       DEPTH      WIDTH   CONDCTNC.   GRADIENT  ELEVATION

   1    1    1     1     1    2.5000E+01  1.0590E+00   2.3941E+01  0.000E+00  0.000E+00  0.000E+00  1.09422E+03  1.172E+00  1.296E+01  5.830E-01  6.054E-01  1.093E+03
   1    2    2     1     2    2.3941E+01  3.0652E+00   2.0876E+01  0.000E+00  0.000E+00  0.000E+00  1.08920E+03  1.140E+00  1.253E+01  8.771E-01  1.165E+00  1.088E+03
   1    3    3     1     3    2.0876E+01  2.9028E+00   1.7973E+01  0.000E+00  0.000E+00  0.000E+00  1.08351E+03  1.091E+00  1.183E+01  7.096E-01  1.364E+00  1.082E+03
   1    3    4     1     4    1.7973E+01  2.4656E+00   1.5507E+01  0.000E+00  0.000E+00  0.000E+00  1.07845E+03  1.045E+00  1.098E+01  6.096E-01  1.348E+00  1.077E+03
   1    4    5     2     1    5.5073E+00  2.6619E+00   2.8454E+00  0.000E+00  0.000E+00  0.000E+00  1.07235E+03  4.127E-01  1.200E+01  7.800E-01  1.138E+00  1.072E+03
   1    5    6     2     2    2.8454E+00  1.9528E+00   8.9257E-01  0.000E+00  0.000E+00  0.000E+00  1.06676E+03  2.547E-01  1.200E+01  6.000E-01  1.085E+00  1.067E+03
   1    6    6     2     3    8.9257E-01  8.9257E-01   0.0000E+00  0.000E+00  0.000E+00  0.000E+00  1.06183E+03  3.679E-02  1.200E+01  6.000E-01  1.012E+00  1.062E+03
   1    7    6     2     4    0.0000E+00  0.0000E+00   0.0000E+00  0.000E+00  0.000E+00  0.000E+00  1.05708E+03  0.000E+00  1.200E+01  6.000E-01  1.000E+00  1.057E+03
   1    8    6     2     5    0.0000E+00  0.0000E+00   0.0000E+00  0.000E+00  0.000E+00  0.000E+00  1.05236E+03  0.000E+00  1.200E+01  6.000E-01  1.000E+00  1.052E+03
   1    3    5     3     1    1.0000E+01  2.8252E+00   7.1748E+00  0.000E+00  0.000E+00  0.000E+00  1.07555E+03  1.909E+00  9.636E+00  7.227E-01  1.955E+00  1.074E+03
   1    3    6     3     2    7.1748E+00  1.7034E+00   5.4714E+00  0.000E+00  0.000E+00  0.000E+00  1.07264E+03  1.727E+00  8.909E+00  6.682E-01  1.275E+00  1.071E+03
   1    3    7     3     3    5.4714E+00  7.8867E-01   4.6828E+00  0.000E+00  0.000E+00  0.000E+00  1.06987E+03  1.555E+00  8.218E+00  5.547E-01  7.109E-01  1.068E+03
   1    4    8     3     4    4.6828E+00  1.5469E+00   3.1358E+00  0.000E+00  0.000E+00  0.000E+00  1.06682E+03  1.364E+00  7.455E+00  6.709E-01  1.153E+00  1.065E+03
   1    5    8     3     5    3.1358E+00  1.5789E+00   1.5569E+00  0.000E+00  0.000E+00  0.000E+00  1.06362E+03  1.164E+00  6.655E+00  4.991E-01  1.582E+00  1.062E+03
   1    6    8     3     6    1.5569E+00  5.5980E-01   9.9707E-01  0.000E+00  0.000E+00  0.000E+00  1.06158E+03  1.036E+00  6.145E+00  1.844E-01  1.518E+00  1.061E+03
   1    5   10     4     1    1.0000E+01  9.0525E-01   9.0947E+00  0.000E+00  0.000E+00  0.000E+00  1.07835E+03  6.210E-01  1.000E+01  2.500E-01  1.207E+00  1.078E+03
   1    5    9     4     2    9.0947E+00  1.7835E+00   7.3113E+00  0.000E+00  0.000E+00  0.000E+00  1.07148E+03  5.670E-01  1.000E+01  5.000E-01  1.189E+00  1.071E+03
   1    6    8     4     3    7.3113E+00  1.2257E+00   6.0855E+00  0.000E+00  0.000E+00  0.000E+00  1.06368E+03  5.021E-01  1.000E+01  3.500E-01  1.167E+00  1.063E+03
   1    6    8     5     1    7.0826E+00  9.0707E-01   6.1755E+00  0.000E+00  0.000E+00  0.000E+00  1.05858E+03  5.816E-01  1.182E+01  4.728E-01  6.394E-01  1.058E+03
   1    7    7     5     2    6.1755E+00  1.8140E+00   4.3615E+00  0.000E+00  0.000E+00  0.000E+00  1.05404E+03  5.367E-01  1.030E+01  5.150E-01  1.174E+00  1.054E+03
   1    8    7     5     3    4.3615E+00  1.0382E+00   3.3233E+00  0.000E+00  0.000E+00  0.000E+00  1.04973E+03  4.805E-01  8.522E+00  2.983E-01  1.160E+00  1.049E+03
   1    8    6     5     4    3.3233E+00  6.3283E-01   2.6905E+00  0.000E+00  0.000E+00  0.000E+00  1.04669E+03  4.410E-01  7.356E+00  1.839E-01  1.147E+00  1.046E+03
   1    9    6     6     1    2.6905E+00  1.9469E+00   7.4362E-01  0.000E+00  0.000E+00  0.000E+00  1.04297E+03  2.448E-01  1.200E+01  6.000E-01  1.082E+00  1.043E+03
   1   10    7     6     2    7.4362E-01  7.4362E-01   0.0000E+00  0.000E+00  0.000E+00  0.000E+00  1.03822E+03  3.334E-02  1.200E+01  6.000E-01  1.011E+00  1.038E+03
   1   11    7     6     3    0.0000E+00  0.0000E+00   0.0000E+00  0.000E+00  0.000E+00  0.000E+00  1.03364E+03  0.000E+00  1.200E+01  6.000E-01  1.000E+00  1.034E+03
   1   12    7     6     4    0.0000E+00  0.0000E+00   0.0000E+00  0.000E+00  0.000E+00  0.000E+00  1.02909E+03  0.000E+00  1.200E+01  6.000E-01  2.723E-01  1.029E+03
   1   13    7     6     5    0.0000E+00 -7.7628E-01   7.7628E-01  0.000E+00  0.000E+00  0.000E+00  1.02601E+03  1.003E-01  1.200E+01  2.400E-01 -1.078E+00  1.026E+03
   1   14    9     7     1    1.5000E+02  2.0465E+00   1.4795E+02  0.000E+00  0.000E+00  0.000E+00  1.03987E+03  2.286E+00  5.529E+01  5.592E+00  1.220E-01  1.038E+03
   1   13    8     7     2    1.4795E+02  3.0057E+00   1.4495E+02  0.000E+00  0.000E+00  0.000E+00  1.03477E+03  2.272E+00  5.523E+01  6.144E+00  1.631E-01  1.032E+03
   1   13    7     7     3    1.4495E+02  2.4170E+00   1.4253E+02  0.000E+00  0.000E+00  0.000E+00  1.02968E+03  2.258E+00  5.516E+01  5.578E+00  1.444E-01  1.027E+03
   1   13    6     8     1    1.4331E+02  7.3361E-01   1.4257E+02  0.000E+00  0.000E+00  0.000E+00  1.02464E+03  2.766E+00  4.011E+01  4.088E+00  5.982E-02  1.022E+03
   1   13    5     8     2    1.4257E+02 -2.0608E+00   1.4463E+02  0.000E+00  0.000E+00  0.000E+00  1.01840E+03  2.771E+00  4.018E+01  4.095E+00 -1.678E-01  1.016E+03
   1   13    4     8     3    1.4463E+02 -3.7859E+00   1.4842E+02  0.000E+00  0.000E+00  0.000E+00  1.01217E+03  2.792E+00  4.049E+01  4.126E+00 -3.059E-01  1.009E+03
   1   13    3     8     4    1.4842E+02 -4.0355E+00   1.5246E+02  0.000E+00  0.000E+00  0.000E+00  1.00594E+03  2.820E+00  4.089E+01  4.167E+00 -3.228E-01  1.003E+03
   1   13    2     8     5    1.5246E+02 -2.0790E+00   1.5453E+02  0.000E+00  0.000E+00  0.000E+00  9.99716E+02  2.841E+00  4.120E+01  4.198E+00 -1.651E-01  9.969E+02
   1   13    1     8     6    1.5453E+02 -5.1536E-01   1.5505E+02  0.000E+00  0.000E+00  0.000E+00  9.94725E+02  2.850E+00  4.133E+01  2.527E+00 -6.798E-02  9.919E+02



 UBDSV3 SAVING "           GW ET" ON UNIT 61 AT TIME STEP 15, STRESS PERIOD 9
 UBDSV3 SAVING "    UZF RECHARGE" ON UNIT 61 AT TIME STEP 15, STRESS PERIOD 9
 UBDSV3 SAVING " SURFACE LEAKAGE" ON UNIT 61 AT TIME STEP 15, STRESS PERIOD 9
 UBDSV3 SAVING "       HORT+DUNN" ON UNIT 61 AT TIME STEP 15, STRESS PERIOD 9
 UBDSV3 SAVING "  STORAGE CHANGE" ON UNIT 61 AT TIME STEP 15, STRESS PERIOD 9


UNSATURATED ZONE PACKAGE VOLUMETRIC BUDGET FOR  TIME STEP    15 STRESS PERIOD    9
  ------------------------------------------------------------------------------



     CUMULATIVE VOLUMES      L**3       RATES FOR THIS TIME STEP      L**3/T
     ------------------                 ------------------------

           IN:                                      IN:
           ---                                      ---
        INFILTRATION =     1.4476995E+9          INFILTRATION =       25.4250000

          OUT:                                     OUT:
          ----                                     ----
              UZF ET =     1.7837697E+9                UZF ET =       57.7655637
        UZF RECHARGE =     3.0553496E+8          UZF RECHARGE =       11.1567920

            IN - OUT =    -6.4160517E+8              IN - OUT =      -43.4973557

          STORAGE:                                 STORAGE:
          --------                                 --------
      STORAGE CHANGE =    -6.4140464E+8        STORAGE CHANGE =      -43.4950330

 PERCENT DISCREPANCY =          -0.00     PERCENT DISCREPANCY =          -0.00




 PERCENT DISCREPANCY IS DIFFERENCE BETWEEN IN-OUT MINUS CHANGE IN STORAGE
 DIVIDED BY THE AVERAGE OF IN AND OUT TIMES 100



1
              HEAD IN LAYER   1 AT END OF TIME STEP  15 IN STRESS PERIOD    9
  ---------------------------------------------------------------------------

           1       2       3       4       5       6       7       8       9      10
 ...................................................................................
   1  1092.40 1088.65 6999.00 6999.00 6999.00 6999.00 6999.00 6999.00 6999.00 6999.00
   2  1089.07 1085.70 1079.26 6999.00 6999.00 1074.01 1072.95 1070.80 6999.00 6999.00
   3  6999.00 1077.38 1074.47 1070.34 1071.31 1070.09 1068.45 1068.03 6999.00 6999.00
   4  1068.66 1068.50 1066.88 1063.45 1062.32 1061.03 1061.71 1064.51 1063.87 6999.00
   5  1063.85 1061.43 1059.02 1057.22 1056.95 1057.49 1057.37 1059.48 1062.95 1065.36
   6  1059.20 1055.53 1052.72 1051.24 1051.52 1052.99 1054.26 1056.66 1059.47 1063.70
   7  1055.39 1049.90 1046.95 1045.75 1046.34 1048.09 1050.51 1052.89 1054.24 6999.00
   8  6999.00 1042.56 1040.92 1040.24 1041.08 1043.04 1044.84 1047.32 1049.21 6999.00
   9  6999.00 1035.60 1034.91 1034.84 1035.99 1038.12 1039.02 1040.87 1043.79 6999.00
  10  6999.00 1028.53 1028.85 1029.76 1031.20 1033.08 1034.41 1036.36 1040.07 1044.39
  11  6999.00 1019.71 1021.38 1024.90 1026.93 1029.02 1030.55 1032.88 1036.34 6999.00
  12  1001.20 1008.86 1014.09 1018.94 1022.59 1025.84 1028.27 1031.07 1034.89 6999.00
  13   994.93 1000.21 1006.91 1013.08 1018.90 1024.46 1029.24 1034.28 1036.40 6999.00
  14  6999.00 1005.83 1011.49 1016.21 1021.24 1025.94 1030.22 1035.27 1039.50 6999.00
  15  6999.00 6999.00 1018.84 1021.84 1025.57 1028.54 6999.00 6999.00 6999.00 6999.00

 HEAD WILL BE SAVED ON UNIT   58 AT END OF TIME STEP    15 IN STRESS PERIOD      9



  -------------------------------------------------------------------------------------
  VOLUMETRIC BUDGET FOR ENTIRE MODEL AT END OF TIME STEP   15 IN STRESS PERIOD      9
  -------------------------------------------------------------------------------------

     CUMULATIVE VOLUMES      L**3       RATES FOR THIS TIME STEP      L**3/T
     ------------------                 ------------------------

           IN:                                      IN:
           ---                                      ---
             STORAGE =    74068604.8855               STORAGE =           0.8981
       CONSTANT HEAD =           0.0000         CONSTANT HEAD =           0.0000
               WELLS =           0.0000                 WELLS =           0.0000
     HEAD DEP BOUNDS =     4940896.5043       HEAD DEP BOUNDS =           0.2090
      STREAM LEAKAGE =  1019952893.7304        STREAM LEAKAGE =          43.2028
        UZF RECHARGE =   305534958.8601          UZF RECHARGE =          11.1568
               GW ET =           0.0000                 GW ET =           0.0000
     SURFACE LEAKAGE =           0.0000       SURFACE LEAKAGE =           0.0000

            TOTAL IN =  1404497353.9803              TOTAL IN =          55.4667

          OUT:                                     OUT:
          ----                                     ----
             STORAGE =   359501996.1223               STORAGE =          13.6949
       CONSTANT HEAD =           0.0000         CONSTANT HEAD =           0.0000
               WELLS =   315360000.0000                 WELLS =          10.0000
     HEAD DEP BOUNDS =     6233807.6417       HEAD DEP BOUNDS =           0.2633
      STREAM LEAKAGE =   317973875.7160        STREAM LEAKAGE =          13.2528
        UZF RECHARGE =           0.0000          UZF RECHARGE =           0.0000
               GW ET =   405330186.4852                 GW ET =          18.2541
     SURFACE LEAKAGE =           0.0000       SURFACE LEAKAGE =           0.0000

           TOTAL OUT =  1404399865.9652             TOTAL OUT =          55.4651

            IN - OUT =       97488.0151              IN - OUT =       1.5881E-03

 PERCENT DISCREPANCY =           0.01     PERCENT DISCREPANCY =           0.00


          TIME SUMMARY AT END OF TIME STEP    15 IN STRESS PERIOD      9
                    SECONDS     MINUTES      HOURS       DAYS        YEARS
                    -----------------------------------------------------------
   TIME STEP LENGTH 3.14103E+05  5235.0      87.251      3.6354     9.95332E-03
 STRESS PERIOD TIME 2.62800E+06  43800.      730.00      30.417     8.32763E-02
         TOTAL TIME 2.36520E+07 3.94200E+05  6570.0      273.75     0.74949    
 
1
                            STRESS PERIOD NO.     10, LENGTH =   2628000.    
                            -----------------------------------------------

                              NUMBER OF TIME STEPS =    15

                               MULTIPLIER FOR DELT =     1.100

                            INITIAL TIME STEP SIZE =   82713.09    

WEL PACKAGE WARNING: CURRENT STRESS PERIOD DOES NOT CONTAIN ANY WELLS


0 WELLS

 REUSING NON-PARAMETER GHB CELLS FROM LAST STRESS PERIOD

      2 GHB CELLS

 REUSING STREAM SEGMENT DATA FROM LAST STRESS PERIOD



            AREAL INFILTRATION RATE
 READING ON UNIT   19 WITH FORMAT: (10F4.0)            

            1           2           3           4           5           6           7           8           9          10
 ........................................................................................................................
   1   0.2000E-08  0.4000E-08   0.000       0.000       0.000       0.000       0.000       0.000       0.000       0.000    
   2   0.4000E-08  0.2000E-08  0.4000E-08   0.000       0.000      0.1600E-07  0.1600E-07  0.1000E-07   0.000       0.000    
   3    0.000      0.1000E-07  0.2000E-08  0.2000E-08  0.1600E-07  0.1600E-07  0.1000E-07  0.1000E-07   0.000       0.000    
   4   0.1600E-07  0.1000E-07  0.2000E-08  0.2000E-08  0.2000E-08  0.2000E-08  0.2000E-08  0.2000E-08  0.4000E-08   0.000    
   5   0.1600E-07  0.1000E-07  0.2000E-08  0.2000E-08  0.2000E-08  0.2000E-08  0.2000E-08  0.2000E-08  0.2000E-08  0.2000E-08
   6   0.1600E-07  0.1000E-07  0.1000E-07  0.4000E-08  0.4000E-08  0.2000E-08  0.2000E-08  0.2000E-08  0.2000E-08  0.1000E-07
   7   0.1600E-07  0.1000E-07  0.1000E-07  0.4000E-08  0.4000E-08  0.2000E-08  0.2000E-08  0.4000E-08  0.4000E-08   0.000    
   8    0.000      0.1000E-07  0.1000E-07  0.4000E-08  0.4000E-08  0.2000E-08  0.2000E-08  0.4000E-08  0.1000E-07   0.000    
   9    0.000      0.1000E-07  0.1000E-07  0.4000E-08  0.4000E-08  0.2000E-08  0.2000E-08  0.4000E-08  0.1000E-07   0.000    
  10    0.000      0.1000E-07  0.1000E-07  0.4000E-08  0.4000E-08  0.2000E-08  0.2000E-08  0.4000E-08  0.1000E-07  0.1600E-07
  11    0.000      0.2000E-08  0.2000E-08  0.2000E-08  0.2000E-08  0.2000E-08  0.2000E-08  0.4000E-08  0.1000E-07   0.000    
  12   0.2000E-08  0.2000E-08  0.2000E-08  0.2000E-08  0.2000E-08  0.2000E-08  0.2000E-08  0.2000E-08  0.4000E-08   0.000    
  13   0.2000E-08  0.2000E-08  0.4000E-08  0.4000E-08  0.4000E-08  0.4000E-08  0.4000E-08  0.2000E-08  0.2000E-08   0.000    
  14    0.000      0.4000E-08  0.1000E-07  0.1000E-07  0.1000E-07  0.1000E-07  0.1000E-07  0.4000E-08  0.2000E-08   0.000    
  15    0.000       0.000      0.1600E-07  0.1600E-07  0.1600E-07  0.1600E-07   0.000       0.000       0.000       0.000    

USING ET RATE FROM PREVIOUS STRESS PERIOD. CURRENT PERIOD IS:      10

 USING ET EXTINCTION DEPTH FROM PREVIOUS STRESS PERIOD. CURRENT PERIOD IS:      10

 USING EXTINCTION WATER CONTENT FROM PREVIOUS STRESS PERIOD. CURRENT PERIOD IS:      10
 
 SOLVING FOR HEAD 

     8 ITERATIONS FOR TIME STEP   1 IN STRESS PERIOD   10

 MAXIMUM HEAD CHANGE FOR EACH ITERATION:

    HEAD CHANGE   HEAD CHANGE   HEAD CHANGE   HEAD CHANGE   HEAD CHANGE
  LAYER,ROW,COL LAYER,ROW,COL LAYER,ROW,COL LAYER,ROW,COL LAYER,ROW,COL
 ----------------------------------------------------------------------
     0.1819E-01    0.9152E-02    0.4605E-02    0.2317E-02    0.1166E-02
  (  1,  5,  1) (  1,  5,  1) (  1,  5,  1) (  1,  5,  1) (  1,  5,  1)
     0.5864E-03    0.2950E-03    0.1484E-03
  (  1,  5,  1) (  1,  5,  1) (  1,  5,  1)


 NO OUTPUT CONTROL FOR STRESS PERIOD     10   TIME STEP     1
 
 SOLVING FOR HEAD 
     8 ITERATIONS FOR TIME STEP   2 IN STRESS PERIOD   10

 MAXIMUM HEAD CHANGE FOR EACH ITERATION:

    HEAD CHANGE   HEAD CHANGE   HEAD CHANGE   HEAD CHANGE   HEAD CHANGE
  LAYER,ROW,COL LAYER,ROW,COL LAYER,ROW,COL LAYER,ROW,COL LAYER,ROW,COL
 ----------------------------------------------------------------------
     0.1990E-01    0.1001E-01    0.5035E-02    0.2533E-02    0.1274E-02
  (  1,  5,  1) (  1,  5,  1) (  1,  5,  1) (  1,  5,  1) (  1,  5,  1)
     0.6407E-03    0.3222E-03    0.1620E-03
  (  1,  5,  1) (  1,  5,  1) (  1,  5,  1)


 NO OUTPUT CONTROL FOR STRESS PERIOD     10   TIME STEP     2
 
 SOLVING FOR HEAD 
     8 ITERATIONS FOR TIME STEP   3 IN STRESS PERIOD   10

 MAXIMUM HEAD CHANGE FOR EACH ITERATION:

    HEAD CHANGE   HEAD CHANGE   HEAD CHANGE   HEAD CHANGE   HEAD CHANGE
  LAYER,ROW,COL LAYER,ROW,COL LAYER,ROW,COL LAYER,ROW,COL LAYER,ROW,COL
 ----------------------------------------------------------------------
     0.2127E-01    0.1061E-01    0.5296E-02    0.2643E-02    0.1319E-02
  (  1,  5,  1) (  1,  5,  1) (  1,  5,  1) (  1,  5,  1) (  1,  5,  1)
     0.6579E-03    0.3283E-03    0.1638E-03
  (  1,  5,  1) (  1,  5,  1) (  1,  5,  1)


 NO OUTPUT CONTROL FOR STRESS PERIOD     10   TIME STEP     3
 
 SOLVING FOR HEAD 
     8 ITERATIONS FOR TIME STEP   4 IN STRESS PERIOD   10

 MAXIMUM HEAD CHANGE FOR EACH ITERATION:

    HEAD CHANGE   HEAD CHANGE   HEAD CHANGE   HEAD CHANGE   HEAD CHANGE
  LAYER,ROW,COL LAYER,ROW,COL LAYER,ROW,COL LAYER,ROW,COL LAYER,ROW,COL
 ----------------------------------------------------------------------
     0.2258E-01    0.1121E-01    0.5593E-02    0.2790E-02    0.1392E-02
  (  1,  8,  4) (  1,  5,  1) (  1,  5,  1) (  1,  5,  1) (  1,  5,  1)
     0.6944E-03    0.3464E-03    0.1728E-03
  (  1,  5,  1) (  1,  5,  1) (  1,  5,  1)


 NO OUTPUT CONTROL FOR STRESS PERIOD     10   TIME STEP     4
 
 SOLVING FOR HEAD 
     8 ITERATIONS FOR TIME STEP   5 IN STRESS PERIOD   10

 MAXIMUM HEAD CHANGE FOR EACH ITERATION:

    HEAD CHANGE   HEAD CHANGE   HEAD CHANGE   HEAD CHANGE   HEAD CHANGE
  LAYER,ROW,COL LAYER,ROW,COL LAYER,ROW,COL LAYER,ROW,COL LAYER,ROW,COL
 ----------------------------------------------------------------------
     0.2465E-01    0.1224E-01    0.6105E-02    0.3045E-02    0.1519E-02
  (  1,  8,  4) (  1,  5,  1) (  1,  5,  1) (  1,  5,  1) (  1,  5,  1)
     0.7574E-03    0.3777E-03    0.1883E-03
  (  1,  5,  1) (  1,  5,  1) (  1,  5,  1)


 OUTPUT CONTROL FOR STRESS PERIOD     10   TIME STEP     5
    PRINT BUDGET
    SAVE BUDGET

  HEAD DEP BOUNDS   PERIOD   10   STEP   5
 BOUNDARY      1   LAYER   1   ROW    13   COL     1   RATE   -0.263245       COND    0.380000E-01
 BOUNDARY      2   LAYER   1   ROW    14   COL     9   RATE    0.208984       COND    0.380000E-01



 STREAM LISTING     PERIOD     10   STEP        5

 LAYER ROW COL. STREAM  RCH.  FLOW INTO     FLOW TO   FLOW OUT OF   OVRLND.     DIRECT     STREAM       STREAM     STREAM     STREAM   STREAMBED  STREAMBED  STREAMBED
                SEG.NO.  NO.  STRM. RCH.    AQUIFER    STRM. RCH.    RUNOFF     PRECIP       ET          HEAD       DEPTH      WIDTH   CONDCTNC.   GRADIENT  ELEVATION

   1    1    1     1     1    2.5000E+01  1.0600E+00   2.3940E+01  0.000E+00  0.000E+00  0.000E+00  1.09422E+03  1.172E+00  1.296E+01  5.830E-01  6.060E-01  1.093E+03
   1    2    2     1     2    2.3940E+01  3.0652E+00   2.0875E+01  0.000E+00  0.000E+00  0.000E+00  1.08920E+03  1.140E+00  1.253E+01  8.771E-01  1.165E+00  1.088E+03
   1    3    3     1     3    2.0875E+01  2.9028E+00   1.7972E+01  0.000E+00  0.000E+00  0.000E+00  1.08351E+03  1.091E+00  1.183E+01  7.096E-01  1.364E+00  1.082E+03
   1    3    4     1     4    1.7972E+01  2.4656E+00   1.5507E+01  0.000E+00  0.000E+00  0.000E+00  1.07845E+03  1.045E+00  1.098E+01  6.096E-01  1.348E+00  1.077E+03
   1    4    5     2     1    5.5065E+00  2.6619E+00   2.8447E+00  0.000E+00  0.000E+00  0.000E+00  1.07235E+03  4.126E-01  1.200E+01  7.800E-01  1.138E+00  1.072E+03
   1    5    6     2     2    2.8447E+00  1.9528E+00   8.9186E-01  0.000E+00  0.000E+00  0.000E+00  1.06676E+03  2.547E-01  1.200E+01  6.000E-01  1.085E+00  1.067E+03
   1    6    6     2     3    8.9186E-01  8.9186E-01   0.0000E+00  0.000E+00  0.000E+00  0.000E+00  1.06183E+03  3.677E-02  1.200E+01  6.000E-01  1.012E+00  1.062E+03
   1    7    6     2     4    0.0000E+00  0.0000E+00   0.0000E+00  0.000E+00  0.000E+00  0.000E+00  1.05708E+03  0.000E+00  1.200E+01  6.000E-01  1.000E+00  1.057E+03
   1    8    6     2     5    0.0000E+00  0.0000E+00   0.0000E+00  0.000E+00  0.000E+00  0.000E+00  1.05236E+03  0.000E+00  1.200E+01  6.000E-01  1.000E+00  1.052E+03
   1    3    5     3     1    1.0000E+01  2.8252E+00   7.1748E+00  0.000E+00  0.000E+00  0.000E+00  1.07555E+03  1.909E+00  9.636E+00  7.227E-01  1.955E+00  1.074E+03
   1    3    6     3     2    7.1748E+00  1.7355E+00   5.4393E+00  0.000E+00  0.000E+00  0.000E+00  1.07264E+03  1.727E+00  8.909E+00  6.682E-01  1.299E+00  1.071E+03
   1    3    7     3     3    5.4393E+00  8.0189E-01   4.6374E+00  0.000E+00  0.000E+00  0.000E+00  1.06987E+03  1.555E+00  8.218E+00  5.547E-01  7.228E-01  1.068E+03
   1    4    8     3     4    4.6374E+00  1.5516E+00   3.0858E+00  0.000E+00  0.000E+00  0.000E+00  1.06682E+03  1.364E+00  7.455E+00  6.709E-01  1.156E+00  1.065E+03
   1    5    8     3     5    3.0858E+00  1.5789E+00   1.5069E+00  0.000E+00  0.000E+00  0.000E+00  1.06362E+03  1.164E+00  6.655E+00  4.991E-01  1.582E+00  1.062E+03
   1    6    8     3     6    1.5069E+00  5.5980E-01   9.4708E-01  0.000E+00  0.000E+00  0.000E+00  1.06158E+03  1.036E+00  6.145E+00  1.844E-01  1.518E+00  1.061E+03
   1    5   10     4     1    1.0000E+01  9.0525E-01   9.0947E+00  0.000E+00  0.000E+00  0.000E+00  1.07835E+03  6.210E-01  1.000E+01  2.500E-01  1.207E+00  1.078E+03
   1    5    9     4     2    9.0947E+00  1.7835E+00   7.3113E+00  0.000E+00  0.000E+00  0.000E+00  1.07148E+03  5.670E-01  1.000E+01  5.000E-01  1.189E+00  1.071E+03
   1    6    8     4     3    7.3113E+00  1.2257E+00   6.0855E+00  0.000E+00  0.000E+00  0.000E+00  1.06368E+03  5.021E-01  1.000E+01  3.500E-01  1.167E+00  1.063E+03
   1    6    8     5     1    7.0326E+00  8.9803E-01   6.1346E+00  0.000E+00  0.000E+00  0.000E+00  1.05858E+03  5.802E-01  1.177E+01  4.709E-01  6.357E-01  1.058E+03
   1    7    7     5     2    6.1346E+00  1.7952E+00   4.3394E+00  0.000E+00  0.000E+00  0.000E+00  1.05404E+03  5.356E-01  1.026E+01  5.131E-01  1.166E+00  1.054E+03
   1    8    7     5     3    4.3394E+00  1.0346E+00   3.3048E+00  0.000E+00  0.000E+00  0.000E+00  1.04973E+03  4.797E-01  8.495E+00  2.973E-01  1.160E+00  1.049E+03
   1    8    6     5     4    3.3048E+00  6.3047E-01   2.6743E+00  0.000E+00  0.000E+00  0.000E+00  1.04669E+03  4.401E-01  7.331E+00  1.833E-01  1.147E+00  1.046E+03
   1    9    6     6     1    2.6743E+00  1.9461E+00   7.2824E-01  0.000E+00  0.000E+00  0.000E+00  1.04297E+03  2.435E-01  1.200E+01  6.000E-01  1.081E+00  1.043E+03
   1   10    7     6     2    7.2824E-01  7.2824E-01   0.0000E+00  0.000E+00  0.000E+00  0.000E+00  1.03821E+03  3.292E-02  1.200E+01  6.000E-01  1.011E+00  1.038E+03
   1   11    7     6     3    0.0000E+00  0.0000E+00   0.0000E+00  0.000E+00  0.000E+00  0.000E+00  1.03364E+03  0.000E+00  1.200E+01  6.000E-01  1.000E+00  1.034E+03
   1   12    7     6     4    0.0000E+00  0.0000E+00   0.0000E+00  0.000E+00  0.000E+00  0.000E+00  1.02909E+03  0.000E+00  1.200E+01  6.000E-01  2.711E-01  1.029E+03
   1   13    7     6     5    0.0000E+00 -7.7610E-01   7.7610E-01  0.000E+00  0.000E+00  0.000E+00  1.02601E+03  1.003E-01  1.200E+01  2.400E-01 -1.078E+00  1.026E+03
   1   14    9     7     1    1.5000E+02  2.0470E+00   1.4795E+02  0.000E+00  0.000E+00  0.000E+00  1.03987E+03  2.286E+00  5.529E+01  5.592E+00  1.220E-01  1.038E+03
   1   13    8     7     2    1.4795E+02  3.0076E+00   1.4495E+02  0.000E+00  0.000E+00  0.000E+00  1.03477E+03  2.272E+00  5.523E+01  6.144E+00  1.632E-01  1.032E+03
   1   13    7     7     3    1.4495E+02  2.4210E+00   1.4252E+02  0.000E+00  0.000E+00  0.000E+00  1.02968E+03  2.258E+00  5.516E+01  5.578E+00  1.447E-01  1.027E+03
   1   13    6     8     1    1.4330E+02  7.3558E-01   1.4256E+02  0.000E+00  0.000E+00  0.000E+00  1.02464E+03  2.766E+00  4.011E+01  4.088E+00  5.999E-02  1.022E+03
   1   13    5     8     2    1.4256E+02 -2.0603E+00   1.4463E+02  0.000E+00  0.000E+00  0.000E+00  1.01840E+03  2.771E+00  4.018E+01  4.095E+00 -1.677E-01  1.016E+03
   1   13    4     8     3    1.4463E+02 -3.7865E+00   1.4841E+02  0.000E+00  0.000E+00  0.000E+00  1.01217E+03  2.792E+00  4.049E+01  4.126E+00 -3.059E-01  1.009E+03
   1   13    3     8     4    1.4841E+02 -4.0310E+00   1.5244E+02  0.000E+00  0.000E+00  0.000E+00  1.00594E+03  2.820E+00  4.089E+01  4.167E+00 -3.225E-01  1.003E+03
   1   13    2     8     5    1.5244E+02 -2.0777E+00   1.5452E+02  0.000E+00  0.000E+00  0.000E+00  9.99716E+02  2.841E+00  4.120E+01  4.198E+00 -1.650E-01  9.969E+02
   1   13    1     8     6    1.5452E+02 -5.1130E-01   1.5503E+02  0.000E+00  0.000E+00  0.000E+00  9.94725E+02  2.850E+00  4.133E+01  2.527E+00 -6.745E-02  9.919E+02



 UBDSV3 SAVING "           GW ET" ON UNIT 61 AT TIME STEP 5, STRESS PERIOD 10
 UBDSV3 SAVING "    UZF RECHARGE" ON UNIT 61 AT TIME STEP 5, STRESS PERIOD 10
 UBDSV3 SAVING " SURFACE LEAKAGE" ON UNIT 61 AT TIME STEP 5, STRESS PERIOD 10
 UBDSV3 SAVING "       HORT+DUNN" ON UNIT 61 AT TIME STEP 5, STRESS PERIOD 10
 UBDSV3 SAVING "  STORAGE CHANGE" ON UNIT 61 AT TIME STEP 5, STRESS PERIOD 10


UNSATURATED ZONE PACKAGE VOLUMETRIC BUDGET FOR  TIME STEP     5 STRESS PERIOD   10
  ------------------------------------------------------------------------------



     CUMULATIVE VOLUMES      L**3       RATES FOR THIS TIME STEP      L**3/T
     ------------------                 ------------------------

           IN:                                      IN:
           ---                                      ---
        INFILTRATION =     1.4562588E+9          INFILTRATION =       16.9500000

          OUT:                                     OUT:
          ----                                     ----
              UZF ET =     1.8127865E+9                UZF ET =       57.2844275
        UZF RECHARGE =     3.1191296E+8          UZF RECHARGE =       12.3986530

            IN - OUT =    -6.6844072E+8              IN - OUT =      -52.7330805

          STORAGE:                                 STORAGE:
          --------                                 --------
      STORAGE CHANGE =    -6.6824039E+8        STORAGE CHANGE =      -52.7330680

 PERCENT DISCREPANCY =          -0.00     PERCENT DISCREPANCY =          -0.00




 PERCENT DISCREPANCY IS DIFFERENCE BETWEEN IN-OUT MINUS CHANGE IN STORAGE
 DIVIDED BY THE AVERAGE OF IN AND OUT TIMES 100






  -------------------------------------------------------------------------------------
  VOLUMETRIC BUDGET FOR ENTIRE MODEL AT END OF TIME STEP    5 IN STRESS PERIOD     10
  -------------------------------------------------------------------------------------

     CUMULATIVE VOLUMES      L**3       RATES FOR THIS TIME STEP      L**3/T
     ------------------                 ------------------------

           IN:                                      IN:
           ---                                      ---
             STORAGE =    74661444.5242               STORAGE =           1.2224
       CONSTANT HEAD =           0.0000         CONSTANT HEAD =           0.0000
               WELLS =           0.0000                 WELLS =           0.0000
     HEAD DEP BOUNDS =     5046426.7497       HEAD DEP BOUNDS =           0.2090
      STREAM LEAKAGE =  1041771772.8461        STREAM LEAKAGE =          43.2112
        UZF RECHARGE =   311912964.3422          UZF RECHARGE =          12.3987
               GW ET =           0.0000                 GW ET =           0.0000
     SURFACE LEAKAGE =           0.0000       SURFACE LEAKAGE =           0.0000

            TOTAL IN =  1433392608.4622              TOTAL IN =          57.0412

          OUT:                                     OUT:
          ----                                     ----
             STORAGE =   372350530.6579               STORAGE =          25.2630
       CONSTANT HEAD =           0.0000         CONSTANT HEAD =           0.0000
               WELLS =   315360000.0000                 WELLS =           0.0000
     HEAD DEP BOUNDS =     6366751.3071       HEAD DEP BOUNDS =           0.2632
      STREAM LEAKAGE =   324662649.4325        STREAM LEAKAGE =          13.2428
        UZF RECHARGE =           0.0000          UZF RECHARGE =           0.0000
               GW ET =   414551053.1258                 GW ET =          18.2643
     SURFACE LEAKAGE =           0.0000       SURFACE LEAKAGE =           0.0000

           TOTAL OUT =  1433290984.5232             TOTAL OUT =          57.0334

            IN - OUT =      101623.9390              IN - OUT =       7.8131E-03

 PERCENT DISCREPANCY =           0.01     PERCENT DISCREPANCY =           0.01


          TIME SUMMARY AT END OF TIME STEP     5 IN STRESS PERIOD     10
                    SECONDS     MINUTES      HOURS       DAYS        YEARS
                    -----------------------------------------------------------
   TIME STEP LENGTH 1.21100E+05  2018.3      33.639      1.4016     3.83743E-03
 STRESS PERIOD TIME 5.04972E+05  8416.2      140.27      5.8446     1.60016E-02
         TOTAL TIME 2.41570E+07 4.02616E+05  6710.3      279.59     0.76549    
 
 
 SOLVING FOR HEAD 
     9 ITERATIONS FOR TIME STEP   6 IN STRESS PERIOD   10

 MAXIMUM HEAD CHANGE FOR EACH ITERATION:

    HEAD CHANGE   HEAD CHANGE   HEAD CHANGE   HEAD CHANGE   HEAD CHANGE
  LAYER,ROW,COL LAYER,ROW,COL LAYER,ROW,COL LAYER,ROW,COL LAYER,ROW,COL
 ----------------------------------------------------------------------
     0.2688E-01    0.1335E-01    0.6658E-02    0.3320E-02    0.1655E-02
  (  1,  8,  4) (  1,  5,  1) (  1,  5,  1) (  1,  5,  1) (  1,  5,  1)
     0.8249E-03    0.4112E-03    0.2049E-03    0.1021E-03
  (  1,  5,  1) (  1,  5,  1) (  1,  5,  1) (  1,  5,  1)


 NO OUTPUT CONTROL FOR STRESS PERIOD     10   TIME STEP     6
 
 SOLVING FOR HEAD 
     9 ITERATIONS FOR TIME STEP   7 IN STRESS PERIOD   10

 MAXIMUM HEAD CHANGE FOR EACH ITERATION:

    HEAD CHANGE   HEAD CHANGE   HEAD CHANGE   HEAD CHANGE   HEAD CHANGE
  LAYER,ROW,COL LAYER,ROW,COL LAYER,ROW,COL LAYER,ROW,COL LAYER,ROW,COL
 ----------------------------------------------------------------------
     0.2927E-01    0.1376E-01    0.6799E-02    0.3360E-02    0.1660E-02
  (  1,  8,  4) (  1,  5,  1) (  1,  5,  1) (  1,  5,  1) (  1,  5,  1)
     0.8204E-03    0.4053E-03    0.2003E-03    0.9894E-04
  (  1,  5,  1) (  1,  5,  1) (  1,  5,  1) (  1,  5,  1)


 NO OUTPUT CONTROL FOR STRESS PERIOD     10   TIME STEP     7
 
 SOLVING FOR HEAD 
     9 ITERATIONS FOR TIME STEP   8 IN STRESS PERIOD   10

 MAXIMUM HEAD CHANGE FOR EACH ITERATION:

    HEAD CHANGE   HEAD CHANGE   HEAD CHANGE   HEAD CHANGE   HEAD CHANGE
  LAYER,ROW,COL LAYER,ROW,COL LAYER,ROW,COL LAYER,ROW,COL LAYER,ROW,COL
 ----------------------------------------------------------------------
     0.3184E-01    0.1473E-01    0.7275E-02    0.3594E-02    0.1775E-02
  (  1,  8,  4) (  1,  5,  1) (  1,  5,  1) (  1,  5,  1) (  1,  5,  1)
     0.8769E-03    0.4331E-03    0.2139E-03    0.1056E-03
  (  1,  5,  1) (  1,  5,  1) (  1,  5,  1) (  1,  5,  1)


 NO OUTPUT CONTROL FOR STRESS PERIOD     10   TIME STEP     8
 
 SOLVING FOR HEAD 
     9 ITERATIONS FOR TIME STEP   9 IN STRESS PERIOD   10

 MAXIMUM HEAD CHANGE FOR EACH ITERATION:

    HEAD CHANGE   HEAD CHANGE   HEAD CHANGE   HEAD CHANGE   HEAD CHANGE
  LAYER,ROW,COL LAYER,ROW,COL LAYER,ROW,COL LAYER,ROW,COL LAYER,ROW,COL
 ----------------------------------------------------------------------
     0.3458E-01    0.1603E-01    0.7916E-02    0.3909E-02    0.1930E-02
  (  1,  8,  4) (  1,  5,  1) (  1,  5,  1) (  1,  5,  1) (  1,  5,  1)
     0.9529E-03    0.4704E-03    0.2322E-03    0.1146E-03
  (  1,  5,  1) (  1,  5,  1) (  1,  5,  1) (  1,  5,  1)


 NO OUTPUT CONTROL FOR STRESS PERIOD     10   TIME STEP     9
 
 SOLVING FOR HEAD 
     9 ITERATIONS FOR TIME STEP  10 IN STRESS PERIOD   10

 MAXIMUM HEAD CHANGE FOR EACH ITERATION:

    HEAD CHANGE   HEAD CHANGE   HEAD CHANGE   HEAD CHANGE   HEAD CHANGE
  LAYER,ROW,COL LAYER,ROW,COL LAYER,ROW,COL LAYER,ROW,COL LAYER,ROW,COL
 ----------------------------------------------------------------------
     0.3750E-01    0.1581E-01    0.7663E-02    0.3715E-02    0.1800E-02
  (  1,  8,  4) (  1,  5,  1) (  1,  5,  1) (  1,  5,  1) (  1,  5,  1)
     0.8726E-03    0.4229E-03    0.2050E-03    0.9932E-04
  (  1,  5,  1) (  1,  5,  1) (  1,  5,  1) (  1,  5,  1)


 OUTPUT CONTROL FOR STRESS PERIOD     10   TIME STEP    10
    PRINT BUDGET
    SAVE BUDGET

  HEAD DEP BOUNDS   PERIOD   10   STEP  10
 BOUNDARY      1   LAYER   1   ROW    13   COL     1   RATE   -0.263163       COND    0.380000E-01
 BOUNDARY      2   LAYER   1   ROW    14   COL     9   RATE    0.208991       COND    0.380000E-01



 STREAM LISTING     PERIOD     10   STEP       10

 LAYER ROW COL. STREAM  RCH.  FLOW INTO     FLOW TO   FLOW OUT OF   OVRLND.     DIRECT     STREAM       STREAM     STREAM     STREAM   STREAMBED  STREAMBED  STREAMBED
                SEG.NO.  NO.  STRM. RCH.    AQUIFER    STRM. RCH.    RUNOFF     PRECIP       ET          HEAD       DEPTH      WIDTH   CONDCTNC.   GRADIENT  ELEVATION

   1    1    1     1     1    2.5000E+01  1.0614E+00   2.3939E+01  0.000E+00  0.000E+00  0.000E+00  1.09422E+03  1.172E+00  1.296E+01  5.830E-01  6.068E-01  1.093E+03
   1    2    2     1     2    2.3939E+01  3.0651E+00   2.0873E+01  0.000E+00  0.000E+00  0.000E+00  1.08920E+03  1.140E+00  1.253E+01  8.771E-01  1.165E+00  1.088E+03
   1    3    3     1     3    2.0873E+01  2.9027E+00   1.7971E+01  0.000E+00  0.000E+00  0.000E+00  1.08351E+03  1.091E+00  1.183E+01  7.096E-01  1.364E+00  1.082E+03
   1    3    4     1     4    1.7971E+01  2.4654E+00   1.5505E+01  0.000E+00  0.000E+00  0.000E+00  1.07845E+03  1.045E+00  1.098E+01  6.095E-01  1.348E+00  1.077E+03
   1    4    5     2     1    5.5054E+00  2.6618E+00   2.8436E+00  0.000E+00  0.000E+00  0.000E+00  1.07235E+03  4.126E-01  1.200E+01  7.800E-01  1.138E+00  1.072E+03
   1    5    6     2     2    2.8436E+00  1.9528E+00   8.9082E-01  0.000E+00  0.000E+00  0.000E+00  1.06676E+03  2.546E-01  1.200E+01  6.000E-01  1.085E+00  1.067E+03
   1    6    6     2     3    8.9082E-01  8.9082E-01   0.0000E+00  0.000E+00  0.000E+00  0.000E+00  1.06183E+03  3.675E-02  1.200E+01  6.000E-01  1.012E+00  1.062E+03
   1    7    6     2     4    0.0000E+00  0.0000E+00   0.0000E+00  0.000E+00  0.000E+00  0.000E+00  1.05708E+03  0.000E+00  1.200E+01  6.000E-01  1.000E+00  1.057E+03
   1    8    6     2     5    0.0000E+00  0.0000E+00   0.0000E+00  0.000E+00  0.000E+00  0.000E+00  1.05236E+03  0.000E+00  1.200E+01  6.000E-01  1.000E+00  1.052E+03
   1    3    5     3     1    1.0000E+01  2.8252E+00   7.1748E+00  0.000E+00  0.000E+00  0.000E+00  1.07555E+03  1.909E+00  9.636E+00  7.227E-01  1.955E+00  1.074E+03
   1    3    6     3     2    7.1748E+00  1.7856E+00   5.3892E+00  0.000E+00  0.000E+00  0.000E+00  1.07264E+03  1.727E+00  8.909E+00  6.682E-01  1.336E+00  1.071E+03
   1    3    7     3     3    5.3892E+00  8.2851E-01   4.5607E+00  0.000E+00  0.000E+00  0.000E+00  1.06987E+03  1.555E+00  8.218E+00  5.547E-01  7.468E-01  1.068E+03
   1    4    8     3     4    4.5607E+00  1.5566E+00   3.0041E+00  0.000E+00  0.000E+00  0.000E+00  1.06682E+03  1.364E+00  7.455E+00  6.709E-01  1.160E+00  1.065E+03
   1    5    8     3     5    3.0041E+00  1.5789E+00   1.4251E+00  0.000E+00  0.000E+00  0.000E+00  1.06362E+03  1.164E+00  6.655E+00  4.991E-01  1.582E+00  1.062E+03
   1    6    8     3     6    1.4251E+00  5.5980E-01   8.6534E-01  0.000E+00  0.000E+00  0.000E+00  1.06158E+03  1.036E+00  6.145E+00  1.844E-01  1.518E+00  1.061E+03
   1    5   10     4     1    1.0000E+01  9.0525E-01   9.0947E+00  0.000E+00  0.000E+00  0.000E+00  1.07835E+03  6.210E-01  1.000E+01  2.500E-01  1.207E+00  1.078E+03
   1    5    9     4     2    9.0947E+00  1.7835E+00   7.3113E+00  0.000E+00  0.000E+00  0.000E+00  1.07148E+03  5.670E-01  1.000E+01  5.000E-01  1.189E+00  1.071E+03
   1    6    8     4     3    7.3113E+00  1.2257E+00   6.0855E+00  0.000E+00  0.000E+00  0.000E+00  1.06368E+03  5.021E-01  1.000E+01  3.500E-01  1.167E+00  1.063E+03
   1    6    8     5     1    6.9509E+00  8.8345E-01   6.0674E+00  0.000E+00  0.000E+00  0.000E+00  1.05858E+03  5.779E-01  1.169E+01  4.677E-01  6.297E-01  1.058E+03
   1    7    7     5     2    6.0674E+00  1.7651E+00   4.3023E+00  0.000E+00  0.000E+00  0.000E+00  1.05403E+03  5.337E-01  1.020E+01  5.100E-01  1.154E+00  1.054E+03
   1    8    7     5     3    4.3023E+00  1.0286E+00   3.2737E+00  0.000E+00  0.000E+00  0.000E+00  1.04973E+03  4.782E-01  8.450E+00  2.957E-01  1.159E+00  1.049E+03
   1    8    6     5     4    3.2737E+00  6.2651E-01   2.6472E+00  0.000E+00  0.000E+00  0.000E+00  1.04669E+03  4.386E-01  7.288E+00  1.822E-01  1.146E+00  1.046E+03
   1    9    6     6     1    2.6472E+00  1.9447E+00   7.0251E-01  0.000E+00  0.000E+00  0.000E+00  1.04297E+03  2.412E-01  1.200E+01  6.000E-01  1.080E+00  1.043E+03
   1   10    7     6     2    7.0251E-01  7.0251E-01   0.0000E+00  0.000E+00  0.000E+00  0.000E+00  1.03821E+03  3.222E-02  1.200E+01  6.000E-01  1.011E+00  1.038E+03
   1   11    7     6     3    0.0000E+00  0.0000E+00   0.0000E+00  0.000E+00  0.000E+00  0.000E+00  1.03364E+03  0.000E+00  1.200E+01  6.000E-01  1.000E+00  1.034E+03
   1   12    7     6     4    0.0000E+00  0.0000E+00   0.0000E+00  0.000E+00  0.000E+00  0.000E+00  1.02909E+03  0.000E+00  1.200E+01  6.000E-01  2.690E-01  1.029E+03
   1   13    7     6     5    0.0000E+00 -7.7593E-01   7.7593E-01  0.000E+00  0.000E+00  0.000E+00  1.02601E+03  1.003E-01  1.200E+01  2.400E-01 -1.078E+00  1.026E+03
   1   14    9     7     1    1.5000E+02  2.0480E+00   1.4795E+02  0.000E+00  0.000E+00  0.000E+00  1.03987E+03  2.286E+00  5.529E+01  5.592E+00  1.221E-01  1.038E+03
   1   13    8     7     2    1.4795E+02  3.0102E+00   1.4494E+02  0.000E+00  0.000E+00  0.000E+00  1.03477E+03  2.272E+00  5.523E+01  6.144E+00  1.633E-01  1.032E+03
   1   13    7     7     3    1.4494E+02  2.4250E+00   1.4252E+02  0.000E+00  0.000E+00  0.000E+00  1.02968E+03  2.258E+00  5.516E+01  5.578E+00  1.449E-01  1.027E+03
   1   13    6     8     1    1.4329E+02  7.3639E-01   1.4256E+02  0.000E+00  0.000E+00  0.000E+00  1.02464E+03  2.766E+00  4.011E+01  4.087E+00  6.005E-02  1.022E+03
   1   13    5     8     2    1.4256E+02 -2.0653E+00   1.4462E+02  0.000E+00  0.000E+00  0.000E+00  1.01840E+03  2.771E+00  4.018E+01  4.095E+00 -1.681E-01  1.016E+03
   1   13    4     8     3    1.4462E+02 -3.7862E+00   1.4841E+02  0.000E+00  0.000E+00  0.000E+00  1.01217E+03  2.792E+00  4.049E+01  4.126E+00 -3.059E-01  1.009E+03
   1   13    3     8     4    1.4841E+02 -4.0298E+00   1.5244E+02  0.000E+00  0.000E+00  0.000E+00  1.00594E+03  2.820E+00  4.089E+01  4.167E+00 -3.224E-01  1.003E+03
   1   13    2     8     5    1.5244E+02 -2.0761E+00   1.5451E+02  0.000E+00  0.000E+00  0.000E+00  9.99716E+02  2.841E+00  4.120E+01  4.198E+00 -1.648E-01  9.969E+02
   1   13    1     8     6    1.5451E+02 -5.0602E-01   1.5502E+02  0.000E+00  0.000E+00  0.000E+00  9.94725E+02  2.850E+00  4.133E+01  2.527E+00 -6.676E-02  9.919E+02



 UBDSV3 SAVING "           GW ET" ON UNIT 61 AT TIME STEP 10, STRESS PERIOD 10
 UBDSV3 SAVING "    UZF RECHARGE" ON UNIT 61 AT TIME STEP 10, STRESS PERIOD 10
 UBDSV3 SAVING " SURFACE LEAKAGE" ON UNIT 61 AT TIME STEP 10, STRESS PERIOD 10
 UBDSV3 SAVING "       HORT+DUNN" ON UNIT 61 AT TIME STEP 10, STRESS PERIOD 10
 UBDSV3 SAVING "  STORAGE CHANGE" ON UNIT 61 AT TIME STEP 10, STRESS PERIOD 10


UNSATURATED ZONE PACKAGE VOLUMETRIC BUDGET FOR  TIME STEP    10 STRESS PERIOD   10
  ------------------------------------------------------------------------------



     CUMULATIVE VOLUMES      L**3       RATES FOR THIS TIME STEP      L**3/T
     ------------------                 ------------------------

           IN:                                      IN:
           ---                                      ---
        INFILTRATION =     1.4700436E+9          INFILTRATION =       16.9500000

          OUT:                                     OUT:
          ----                                     ----
              UZF ET =     1.8589899E+9                UZF ET =       56.5425274
        UZF RECHARGE =     3.2150896E+8          UZF RECHARGE =       11.3745582

            IN - OUT =    -7.1045526E+8              IN - OUT =      -50.9670856

          STORAGE:                                 STORAGE:
          --------                                 --------
      STORAGE CHANGE =    -7.1025267E+8        STORAGE CHANGE =      -50.9656171

 PERCENT DISCREPANCY =          -0.00     PERCENT DISCREPANCY =          -0.00




 PERCENT DISCREPANCY IS DIFFERENCE BETWEEN IN-OUT MINUS CHANGE IN STORAGE
 DIVIDED BY THE AVERAGE OF IN AND OUT TIMES 100






  -------------------------------------------------------------------------------------
  VOLUMETRIC BUDGET FOR ENTIRE MODEL AT END OF TIME STEP   10 IN STRESS PERIOD     10
  -------------------------------------------------------------------------------------

     CUMULATIVE VOLUMES      L**3       RATES FOR THIS TIME STEP      L**3/T
     ------------------                 ------------------------

           IN:                                      IN:
           ---                                      ---
             STORAGE =    75737711.9427               STORAGE =           1.3404
       CONSTANT HEAD =           0.0000         CONSTANT HEAD =           0.0000
               WELLS =           0.0000                 WELLS =           0.0000
     HEAD DEP BOUNDS =     5216388.7066       HEAD DEP BOUNDS =           0.2090
      STREAM LEAKAGE =  1076918143.4539        STREAM LEAKAGE =          43.2196
        UZF RECHARGE =   321508956.2314          UZF RECHARGE =          11.3746
               GW ET =           0.0000                 GW ET =           0.0000
     SURFACE LEAKAGE =           0.0000       SURFACE LEAKAGE =           0.0000

            TOTAL IN =  1479381200.3345              TOTAL IN =          56.1436

          OUT:                                     OUT:
          ----                                     ----
             STORAGE =   392491339.8091               STORAGE =          24.3560
       CONSTANT HEAD =           0.0000         CONSTANT HEAD =           0.0000
               WELLS =   315360000.0000                 WELLS =           0.0000
     HEAD DEP BOUNDS =     6580796.5392       HEAD DEP BOUNDS =           0.2632
      STREAM LEAKAGE =   335431490.6239        STREAM LEAKAGE =          13.2394
        UZF RECHARGE =           0.0000          UZF RECHARGE =           0.0000
               GW ET =   429413521.5294                 GW ET =          18.2826
     SURFACE LEAKAGE =           0.0000       SURFACE LEAKAGE =           0.0000

           TOTAL OUT =  1479277148.5016             TOTAL OUT =          56.1411

            IN - OUT =      104051.8330              IN - OUT =       2.4935E-03

 PERCENT DISCREPANCY =           0.01     PERCENT DISCREPANCY =           0.00


          TIME SUMMARY AT END OF TIME STEP    10 IN STRESS PERIOD     10
                    SECONDS     MINUTES      HOURS       DAYS        YEARS
                    -----------------------------------------------------------
   TIME STEP LENGTH 1.95033E+05  3250.6      54.176      2.2573     6.18023E-03
 STRESS PERIOD TIME 1.31823E+06  21971.      366.18      15.257     4.17723E-02
         TOTAL TIME 2.49702E+07 4.16171E+05  6936.2      289.01     0.79126    
 
 
 SOLVING FOR HEAD 
     9 ITERATIONS FOR TIME STEP  11 IN STRESS PERIOD   10

 MAXIMUM HEAD CHANGE FOR EACH ITERATION:

    HEAD CHANGE   HEAD CHANGE   HEAD CHANGE   HEAD CHANGE   HEAD CHANGE
  LAYER,ROW,COL LAYER,ROW,COL LAYER,ROW,COL LAYER,ROW,COL LAYER,ROW,COL
 ----------------------------------------------------------------------
     0.4058E-01    0.1604E-01    0.7777E-02    0.3769E-02    0.1827E-02
  (  1,  8,  4) (  1,  5,  1) (  1,  5,  1) (  1,  5,  1) (  1,  5,  1)
     0.8852E-03    0.4289E-03    0.2109E-03    0.1051E-03
  (  1,  5,  1) (  1,  5,  1) (  1,  7,  1) (  1,  7,  1)


 NO OUTPUT CONTROL FOR STRESS PERIOD     10   TIME STEP    11
 
 SOLVING FOR HEAD 
     9 ITERATIONS FOR TIME STEP  12 IN STRESS PERIOD   10

 MAXIMUM HEAD CHANGE FOR EACH ITERATION:

    HEAD CHANGE   HEAD CHANGE   HEAD CHANGE   HEAD CHANGE   HEAD CHANGE
  LAYER,ROW,COL LAYER,ROW,COL LAYER,ROW,COL LAYER,ROW,COL LAYER,ROW,COL
 ----------------------------------------------------------------------
     0.4920E-01    0.2450E-01    0.1219E-01    0.6071E-02    0.3022E-02
  (  1,  7,  1) (  1,  7,  1) (  1,  7,  1) (  1,  7,  1) (  1,  7,  1)
     0.1504E-02    0.7485E-03    0.3725E-03    0.1854E-03
  (  1,  7,  1) (  1,  7,  1) (  1,  7,  1) (  1,  7,  1)


 NO OUTPUT CONTROL FOR STRESS PERIOD     10   TIME STEP    12
 
 SOLVING FOR HEAD 
     9 ITERATIONS FOR TIME STEP  13 IN STRESS PERIOD   10

 MAXIMUM HEAD CHANGE FOR EACH ITERATION:

    HEAD CHANGE   HEAD CHANGE   HEAD CHANGE   HEAD CHANGE   HEAD CHANGE
  LAYER,ROW,COL LAYER,ROW,COL LAYER,ROW,COL LAYER,ROW,COL LAYER,ROW,COL
 ----------------------------------------------------------------------
     0.5146E-01    0.2560E-01    0.1263E-01    0.6231E-02    0.3074E-02
  (  1,  7,  1) (  1,  7,  1) (  1,  7,  1) (  1,  7,  1) (  1,  7,  1)
     0.1516E-02    0.7477E-03    0.3688E-03    0.1819E-03
  (  1,  7,  1) (  1,  7,  1) (  1,  7,  1) (  1,  7,  1)


 NO OUTPUT CONTROL FOR STRESS PERIOD     10   TIME STEP    13
 
 SOLVING FOR HEAD 
     9 ITERATIONS FOR TIME STEP  14 IN STRESS PERIOD   10

 MAXIMUM HEAD CHANGE FOR EACH ITERATION:

    HEAD CHANGE   HEAD CHANGE   HEAD CHANGE   HEAD CHANGE   HEAD CHANGE
  LAYER,ROW,COL LAYER,ROW,COL LAYER,ROW,COL LAYER,ROW,COL LAYER,ROW,COL
 ----------------------------------------------------------------------
     0.5441E-01    0.2683E-01    0.1323E-01    0.6525E-02    0.3217E-02
  (  1,  7,  1) (  1,  7,  1) (  1,  7,  1) (  1,  7,  1) (  1,  7,  1)
     0.1586E-02    0.7816E-03    0.3852E-03    0.1898E-03
  (  1,  7,  1) (  1,  7,  1) (  1,  7,  1) (  1,  7,  1)


 NO OUTPUT CONTROL FOR STRESS PERIOD     10   TIME STEP    14
 
 SOLVING FOR HEAD 
     9 ITERATIONS FOR TIME STEP  15 IN STRESS PERIOD   10

 MAXIMUM HEAD CHANGE FOR EACH ITERATION:

    HEAD CHANGE   HEAD CHANGE   HEAD CHANGE   HEAD CHANGE   HEAD CHANGE
  LAYER,ROW,COL LAYER,ROW,COL LAYER,ROW,COL LAYER,ROW,COL LAYER,ROW,COL
 ----------------------------------------------------------------------
     0.5489E-01    0.2706E-01    0.1334E-01    0.6573E-02    0.3239E-02
  (  1,  7,  1) (  1,  7,  1) (  1,  7,  1) (  1,  7,  1) (  1,  7,  1)
     0.1596E-02    0.7860E-03    0.3872E-03    0.1907E-03
  (  1,  7,  1) (  1,  7,  1) (  1,  7,  1) (  1,  7,  1)


 OUTPUT CONTROL FOR STRESS PERIOD     10   TIME STEP    15
    PRINT BUDGET
    PRINT HEAD FOR ALL LAYERS
    SAVE HEAD FOR ALL LAYERS
    SAVE BUDGET

  HEAD DEP BOUNDS   PERIOD   10   STEP  15
 BOUNDARY      1   LAYER   1   ROW    13   COL     1   RATE   -0.263078       COND    0.380000E-01
 BOUNDARY      2   LAYER   1   ROW    14   COL     9   RATE    0.209085       COND    0.380000E-01



 STREAM LISTING     PERIOD     10   STEP       15

 LAYER ROW COL. STREAM  RCH.  FLOW INTO     FLOW TO   FLOW OUT OF   OVRLND.     DIRECT     STREAM       STREAM     STREAM     STREAM   STREAMBED  STREAMBED  STREAMBED
                SEG.NO.  NO.  STRM. RCH.    AQUIFER    STRM. RCH.    RUNOFF     PRECIP       ET          HEAD       DEPTH      WIDTH   CONDCTNC.   GRADIENT  ELEVATION

   1    1    1     1     1    2.5000E+01  1.0640E+00   2.3936E+01  0.000E+00  0.000E+00  0.000E+00  1.09422E+03  1.172E+00  1.296E+01  5.830E-01  6.083E-01  1.093E+03
   1    2    2     1     2    2.3936E+01  3.0663E+00   2.0870E+01  0.000E+00  0.000E+00  0.000E+00  1.08920E+03  1.140E+00  1.253E+01  8.770E-01  1.165E+00  1.088E+03
   1    3    3     1     3    2.0870E+01  2.9023E+00   1.7967E+01  0.000E+00  0.000E+00  0.000E+00  1.08351E+03  1.091E+00  1.183E+01  7.095E-01  1.364E+00  1.082E+03
   1    3    4     1     4    1.7967E+01  2.4652E+00   1.5502E+01  0.000E+00  0.000E+00  0.000E+00  1.07845E+03  1.045E+00  1.098E+01  6.095E-01  1.348E+00  1.077E+03
   1    4    5     2     1    5.5022E+00  2.6617E+00   2.8405E+00  0.000E+00  0.000E+00  0.000E+00  1.07235E+03  4.124E-01  1.200E+01  7.800E-01  1.137E+00  1.072E+03
   1    5    6     2     2    2.8405E+00  1.9526E+00   8.8789E-01  0.000E+00  0.000E+00  0.000E+00  1.06676E+03  2.544E-01  1.200E+01  6.000E-01  1.085E+00  1.067E+03
   1    6    6     2     3    8.8789E-01  8.8789E-01   0.0000E+00  0.000E+00  0.000E+00  0.000E+00  1.06183E+03  3.667E-02  1.200E+01  6.000E-01  1.012E+00  1.062E+03
   1    7    6     2     4    0.0000E+00  0.0000E+00   0.0000E+00  0.000E+00  0.000E+00  0.000E+00  1.05708E+03  0.000E+00  1.200E+01  6.000E-01  1.000E+00  1.057E+03
   1    8    6     2     5    0.0000E+00  0.0000E+00   0.0000E+00  0.000E+00  0.000E+00  0.000E+00  1.05236E+03  0.000E+00  1.200E+01  6.000E-01  1.000E+00  1.052E+03
   1    3    5     3     1    1.0000E+01  2.8252E+00   7.1748E+00  0.000E+00  0.000E+00  0.000E+00  1.07555E+03  1.909E+00  9.636E+00  7.227E-01  1.955E+00  1.074E+03
   1    3    6     3     2    7.1748E+00  1.8366E+00   5.3382E+00  0.000E+00  0.000E+00  0.000E+00  1.07264E+03  1.727E+00  8.909E+00  6.682E-01  1.374E+00  1.071E+03
   1    3    7     3     3    5.3382E+00  8.6713E-01   4.4711E+00  0.000E+00  0.000E+00  0.000E+00  1.06987E+03  1.555E+00  8.218E+00  5.547E-01  7.816E-01  1.068E+03
   1    4    8     3     4    4.4711E+00  1.5608E+00   2.9103E+00  0.000E+00  0.000E+00  0.000E+00  1.06682E+03  1.364E+00  7.455E+00  6.709E-01  1.163E+00  1.065E+03
   1    5    8     3     5    2.9103E+00  1.5789E+00   1.3314E+00  0.000E+00  0.000E+00  0.000E+00  1.06362E+03  1.164E+00  6.655E+00  4.991E-01  1.582E+00  1.062E+03
   1    6    8     3     6    1.3314E+00  5.5980E-01   7.7156E-01  0.000E+00  0.000E+00  0.000E+00  1.06158E+03  1.036E+00  6.145E+00  1.844E-01  1.518E+00  1.061E+03
   1    5   10     4     1    1.0000E+01  9.0525E-01   9.0947E+00  0.000E+00  0.000E+00  0.000E+00  1.07835E+03  6.210E-01  1.000E+01  2.500E-01  1.207E+00  1.078E+03
   1    5    9     4     2    9.0947E+00  1.7835E+00   7.3113E+00  0.000E+00  0.000E+00  0.000E+00  1.07148E+03  5.670E-01  1.000E+01  5.000E-01  1.189E+00  1.071E+03
   1    6    8     4     3    7.3113E+00  1.2257E+00   6.0855E+00  0.000E+00  0.000E+00  0.000E+00  1.06368E+03  5.021E-01  1.000E+01  3.500E-01  1.167E+00  1.063E+03
   1    6    8     5     1    6.8571E+00  8.6426E-01   5.9928E+00  0.000E+00  0.000E+00  0.000E+00  1.05858E+03  5.753E-01  1.160E+01  4.641E-01  6.208E-01  1.058E+03
   1    7    7     5     2    5.9928E+00  1.7224E+00   4.2705E+00  0.000E+00  0.000E+00  0.000E+00  1.05403E+03  5.318E-01  1.014E+01  5.069E-01  1.133E+00  1.054E+03
   1    8    7     5     3    4.2705E+00  1.0234E+00   3.2470E+00  0.000E+00  0.000E+00  0.000E+00  1.04973E+03  4.769E-01  8.410E+00  2.944E-01  1.159E+00  1.049E+03
   1    8    6     5     4    3.2470E+00  6.1194E-01   2.6351E+00  0.000E+00  0.000E+00  0.000E+00  1.04669E+03  4.376E-01  7.259E+00  1.815E-01  1.124E+00  1.046E+03
   1    9    6     6     1    2.6351E+00  1.9441E+00   6.9100E-01  0.000E+00  0.000E+00  0.000E+00  1.04297E+03  2.402E-01  1.200E+01  6.000E-01  1.080E+00  1.043E+03
   1   10    7     6     2    6.9100E-01  6.9100E-01   0.0000E+00  0.000E+00  0.000E+00  0.000E+00  1.03821E+03  3.190E-02  1.200E+01  6.000E-01  1.011E+00  1.038E+03
   1   11    7     6     3    0.0000E+00  0.0000E+00   0.0000E+00  0.000E+00  0.000E+00  0.000E+00  1.03364E+03  0.000E+00  1.200E+01  6.000E-01  1.000E+00  1.034E+03
   1   12    7     6     4    0.0000E+00  0.0000E+00   0.0000E+00  0.000E+00  0.000E+00  0.000E+00  1.02909E+03  0.000E+00  1.200E+01  6.000E-01  2.661E-01  1.029E+03
   1   13    7     6     5    0.0000E+00 -7.7585E-01   7.7585E-01  0.000E+00  0.000E+00  0.000E+00  1.02601E+03  1.003E-01  1.200E+01  2.400E-01 -1.078E+00  1.026E+03
   1   14    9     7     1    1.5000E+02  2.0617E+00   1.4794E+02  0.000E+00  0.000E+00  0.000E+00  1.03987E+03  2.286E+00  5.529E+01  5.592E+00  1.229E-01  1.038E+03
   1   13    8     7     2    1.4794E+02  3.0266E+00   1.4491E+02  0.000E+00  0.000E+00  0.000E+00  1.03477E+03  2.272E+00  5.523E+01  6.144E+00  1.642E-01  1.032E+03
   1   13    7     7     3    1.4491E+02  2.4259E+00   1.4249E+02  0.000E+00  0.000E+00  0.000E+00  1.02968E+03  2.258E+00  5.516E+01  5.578E+00  1.450E-01  1.027E+03
   1   13    6     8     1    1.4326E+02  7.0318E-01   1.4256E+02  0.000E+00  0.000E+00  0.000E+00  1.02464E+03  2.766E+00  4.011E+01  4.087E+00  5.735E-02  1.022E+03
   1   13    5     8     2    1.4256E+02 -2.0592E+00   1.4462E+02  0.000E+00  0.000E+00  0.000E+00  1.01840E+03  2.771E+00  4.018E+01  4.095E+00 -1.676E-01  1.016E+03
   1   13    4     8     3    1.4462E+02 -3.7755E+00   1.4839E+02  0.000E+00  0.000E+00  0.000E+00  1.01217E+03  2.792E+00  4.048E+01  4.126E+00 -3.050E-01  1.009E+03
   1   13    3     8     4    1.4839E+02 -4.0095E+00   1.5240E+02  0.000E+00  0.000E+00  0.000E+00  1.00594E+03  2.820E+00  4.088E+01  4.166E+00 -3.208E-01  1.003E+03
   1   13    2     8     5    1.5240E+02 -2.0644E+00   1.5447E+02  0.000E+00  0.000E+00  0.000E+00  9.99716E+02  2.841E+00  4.119E+01  4.198E+00 -1.639E-01  9.969E+02
   1   13    1     8     6    1.5447E+02 -5.0113E-01   1.5497E+02  0.000E+00  0.000E+00  0.000E+00  9.94725E+02  2.850E+00  4.132E+01  2.526E+00 -6.612E-02  9.919E+02



 UBDSV3 SAVING "           GW ET" ON UNIT 61 AT TIME STEP 15, STRESS PERIOD 10
 UBDSV3 SAVING "    UZF RECHARGE" ON UNIT 61 AT TIME STEP 15, STRESS PERIOD 10
 UBDSV3 SAVING " SURFACE LEAKAGE" ON UNIT 61 AT TIME STEP 15, STRESS PERIOD 10
 UBDSV3 SAVING "       HORT+DUNN" ON UNIT 61 AT TIME STEP 15, STRESS PERIOD 10
 UBDSV3 SAVING "  STORAGE CHANGE" ON UNIT 61 AT TIME STEP 15, STRESS PERIOD 10


UNSATURATED ZONE PACKAGE VOLUMETRIC BUDGET FOR  TIME STEP    15 STRESS PERIOD   10
  ------------------------------------------------------------------------------



     CUMULATIVE VOLUMES      L**3       RATES FOR THIS TIME STEP      L**3/T
     ------------------                 ------------------------

           IN:                                      IN:
           ---                                      ---
        INFILTRATION =     1.4922441E+9          INFILTRATION =       16.9500000

          OUT:                                     OUT:
          ----                                     ----
              UZF ET =     1.9306483E+9                UZF ET =       52.0328901
        UZF RECHARGE =     3.3705972E+8          UZF RECHARGE =       12.1160504

            IN - OUT =    -7.7546390E+8              IN - OUT =      -47.1989405

          STORAGE:                                 STORAGE:
          --------                                 --------
      STORAGE CHANGE =    -7.7525140E+8        STORAGE CHANGE =      -47.1817309

 PERCENT DISCREPANCY =          -0.00     PERCENT DISCREPANCY =          -0.03




 PERCENT DISCREPANCY IS DIFFERENCE BETWEEN IN-OUT MINUS CHANGE IN STORAGE
 DIVIDED BY THE AVERAGE OF IN AND OUT TIMES 100



1
              HEAD IN LAYER   1 AT END OF TIME STEP  15 IN STRESS PERIOD   10
  ---------------------------------------------------------------------------

           1       2       3       4       5       6       7       8       9      10
 ...................................................................................
   1  1092.39 1088.64 6999.00 6999.00 6999.00 6999.00 6999.00 6999.00 6999.00 6999.00
   2  1089.05 1085.70 1079.27 6999.00 6999.00 1073.85 1072.78 1070.88 6999.00 6999.00
   3  6999.00 1077.37 1074.49 1070.37 1071.10 1069.89 1068.31 1067.98 6999.00 6999.00
   4  1069.16 1068.59 1066.96 1063.56 1062.41 1061.11 1061.73 1064.49 1063.89 6999.00
   5  1064.71 1061.55 1059.16 1057.46 1057.16 1057.63 1057.45 1059.52 1062.97 1065.37
   6  1059.98 1055.67 1052.95 1051.85 1052.07 1053.21 1054.37 1056.71 1059.50 1063.70
   7  1055.89 1050.02 1047.23 1046.47 1046.98 1048.36 1050.63 1052.96 1054.28 6999.00
   8  6999.00 1042.67 1041.20 1041.00 1041.75 1043.32 1044.99 1047.39 1049.24 6999.00
   9  6999.00 1035.70 1035.18 1035.56 1036.62 1038.37 1039.15 1040.95 1043.82 6999.00
  10  6999.00 1028.61 1029.06 1030.36 1031.70 1033.27 1034.49 1036.40 1040.09 1044.40
  11  6999.00 1019.75 1021.49 1025.10 1027.11 1029.12 1030.60 1032.91 1036.36 6999.00
  12  1001.20 1008.86 1014.12 1019.01 1022.66 1025.88 1028.29 1031.05 1034.89 6999.00
  13   994.92 1000.21 1006.91 1013.08 1018.90 1024.47 1029.24 1034.28 1036.39 6999.00
  14  6999.00 1005.83 1011.45 1016.17 1021.20 1025.89 1030.18 1035.25 1039.50 6999.00
  15  6999.00 6999.00 1018.84 1021.83 1025.57 1028.63 6999.00 6999.00 6999.00 6999.00

 HEAD WILL BE SAVED ON UNIT   58 AT END OF TIME STEP    15 IN STRESS PERIOD     10



  -------------------------------------------------------------------------------------
  VOLUMETRIC BUDGET FOR ENTIRE MODEL AT END OF TIME STEP   15 IN STRESS PERIOD     10
  -------------------------------------------------------------------------------------

     CUMULATIVE VOLUMES      L**3       RATES FOR THIS TIME STEP      L**3/T
     ------------------                 ------------------------

           IN:                                      IN:
           ---                                      ---
             STORAGE =    77477324.1266               STORAGE =           1.2997
       CONSTANT HEAD =           0.0000         CONSTANT HEAD =           0.0000
               WELLS =           0.0000                 WELLS =           0.0000
     HEAD DEP BOUNDS =     5490170.6110       HEAD DEP BOUNDS =           0.2091
      STREAM LEAKAGE =  1133517210.7942        STREAM LEAKAGE =          43.2174
        UZF RECHARGE =   337059720.7873          UZF RECHARGE =          12.1161
               GW ET =           0.0000                 GW ET =           0.0000
     SURFACE LEAKAGE =           0.0000       SURFACE LEAKAGE =           0.0000

            TOTAL IN =  1553544426.3190              TOTAL IN =          56.8422

          OUT:                                     OUT:
          ----                                     ----
             STORAGE =   424817899.8118               STORAGE =          24.7023
       CONSTANT HEAD =           0.0000         CONSTANT HEAD =           0.0000
               WELLS =   315360000.0000                 WELLS =           0.0000
     HEAD DEP BOUNDS =     6925407.5640       HEAD DEP BOUNDS =           0.2631
      STREAM LEAKAGE =   352732678.8566        STREAM LEAKAGE =          13.1856
        UZF RECHARGE =           0.0000          UZF RECHARGE =           0.0000
               GW ET =   453599984.2933                 GW ET =          18.6875
     SURFACE LEAKAGE =           0.0000       SURFACE LEAKAGE =           0.0000

           TOTAL OUT =  1553435970.5257             TOTAL OUT =          56.8384

            IN - OUT =      108455.7933              IN - OUT =       3.7512E-03

 PERCENT DISCREPANCY =           0.01     PERCENT DISCREPANCY =           0.01


          TIME SUMMARY AT END OF TIME STEP    15 IN STRESS PERIOD     10
                    SECONDS     MINUTES      HOURS       DAYS        YEARS
                    -----------------------------------------------------------
   TIME STEP LENGTH 3.14103E+05  5235.0      87.251      3.6354     9.95332E-03
 STRESS PERIOD TIME 2.62800E+06  43800.      730.00      30.417     8.32763E-02
         TOTAL TIME 2.62800E+07 4.38000E+05  7300.0      304.17     0.83276    
 
1
                            STRESS PERIOD NO.     11, LENGTH =   2628000.    
                            -----------------------------------------------

                              NUMBER OF TIME STEPS =    15

                               MULTIPLIER FOR DELT =     1.100

                            INITIAL TIME STEP SIZE =   82713.09    

 WEL PACKAGE STRESS PERIOD INFORMATION [BEFORE APPLICATION OF TABFILES]

 WELL NO.  LAYER   ROW   COL   STRESS RATE         
 --------------------------------------------------
      1      1      6      4  -3.0000000    
      2      1      6      5  -3.0000000    
      3      1      7      4  -3.0000000    
      4      1      7      5  -3.0000000    
      5      1      8      4  -3.0000000    
      6      1      8      5  -3.0000000    
      7      1      9      4  -3.0000000    
      8      1      9      5  -3.0000000    
      9      1     10      4  -3.0000000    
     10      1     10      5  -3.0000000    

10 WELLS

 REUSING NON-PARAMETER GHB CELLS FROM LAST STRESS PERIOD

      2 GHB CELLS

 REUSING STREAM SEGMENT DATA FROM LAST STRESS PERIOD



            AREAL INFILTRATION RATE
 READING ON UNIT   19 WITH FORMAT: (10F4.0)            

            1           2           3           4           5           6           7           8           9          10
 ........................................................................................................................
   1   0.1000E-08  0.2000E-08   0.000       0.000       0.000       0.000       0.000       0.000       0.000       0.000    
   2   0.2000E-08  0.1000E-08  0.2000E-08   0.000       0.000      0.8000E-08  0.8000E-08  0.5000E-08   0.000       0.000    
   3    0.000      0.5000E-08  0.1000E-08  0.1000E-08  0.8000E-08  0.8000E-08  0.5000E-08  0.5000E-08   0.000       0.000    
   4   0.8000E-08  0.5000E-08  0.1000E-08  0.1000E-08  0.1000E-08  0.1000E-08  0.1000E-08  0.1000E-08  0.2000E-08   0.000    
   5   0.8000E-08  0.5000E-08  0.1000E-08  0.1000E-08  0.1000E-08  0.1000E-08  0.1000E-08  0.1000E-08  0.1000E-08  0.1000E-08
   6   0.8000E-08  0.5000E-08  0.5000E-08  0.2000E-08  0.2000E-08  0.1000E-08  0.1000E-08  0.1000E-08  0.1000E-08  0.5000E-08
   7   0.8000E-08  0.5000E-08  0.5000E-08  0.2000E-08  0.2000E-08  0.1000E-08  0.1000E-08  0.2000E-08  0.2000E-08   0.000    
   8    0.000      0.5000E-08  0.5000E-08  0.2000E-08  0.2000E-08  0.1000E-08  0.1000E-08  0.2000E-08  0.5000E-08   0.000    
   9    0.000      0.5000E-08  0.5000E-08  0.2000E-08  0.2000E-08  0.1000E-08  0.1000E-08  0.2000E-08  0.5000E-08   0.000    
  10    0.000      0.5000E-08  0.5000E-08  0.2000E-08  0.2000E-08  0.1000E-08  0.1000E-08  0.2000E-08  0.5000E-08  0.8000E-08
  11    0.000      0.1000E-08  0.1000E-08  0.1000E-08  0.1000E-08  0.1000E-08  0.1000E-08  0.2000E-08  0.5000E-08   0.000    
  12   0.1000E-08  0.1000E-08  0.1000E-08  0.1000E-08  0.1000E-08  0.1000E-08  0.1000E-08  0.1000E-08  0.2000E-08   0.000    
  13   0.1000E-08  0.1000E-08  0.2000E-08  0.2000E-08  0.2000E-08  0.2000E-08  0.2000E-08  0.1000E-08  0.1000E-08   0.000    
  14    0.000      0.2000E-08  0.5000E-08  0.5000E-08  0.5000E-08  0.5000E-08  0.5000E-08  0.2000E-08  0.1000E-08   0.000    
  15    0.000       0.000      0.8000E-08  0.8000E-08  0.8000E-08  0.8000E-08   0.000       0.000       0.000       0.000    

USING ET RATE FROM PREVIOUS STRESS PERIOD. CURRENT PERIOD IS:      11

 USING ET EXTINCTION DEPTH FROM PREVIOUS STRESS PERIOD. CURRENT PERIOD IS:      11

 USING EXTINCTION WATER CONTENT FROM PREVIOUS STRESS PERIOD. CURRENT PERIOD IS:      11
 
 SOLVING FOR HEAD 

     8 ITERATIONS FOR TIME STEP   1 IN STRESS PERIOD   11

 MAXIMUM HEAD CHANGE FOR EACH ITERATION:

    HEAD CHANGE   HEAD CHANGE   HEAD CHANGE   HEAD CHANGE   HEAD CHANGE
  LAYER,ROW,COL LAYER,ROW,COL LAYER,ROW,COL LAYER,ROW,COL LAYER,ROW,COL
 ----------------------------------------------------------------------
    -0.2916E-01    0.7270E-02    0.3600E-02    0.1783E-02    0.8827E-03
  (  1,  6,  5) (  1, 15,  6) (  1, 15,  6) (  1, 15,  6) (  1, 15,  6)
     0.4371E-03    0.2164E-03    0.1072E-03
  (  1, 15,  6) (  1, 15,  6) (  1, 15,  6)


 NO OUTPUT CONTROL FOR STRESS PERIOD     11   TIME STEP     1
 
 SOLVING FOR HEAD 
     8 ITERATIONS FOR TIME STEP   2 IN STRESS PERIOD   11

 MAXIMUM HEAD CHANGE FOR EACH ITERATION:

    HEAD CHANGE   HEAD CHANGE   HEAD CHANGE   HEAD CHANGE   HEAD CHANGE
  LAYER,ROW,COL LAYER,ROW,COL LAYER,ROW,COL LAYER,ROW,COL LAYER,ROW,COL
 ----------------------------------------------------------------------
    -0.3147E-01    0.7961E-02    0.3941E-02    0.1951E-02    0.9661E-03
  (  1,  6,  5) (  1, 15,  6) (  1, 15,  6) (  1, 15,  6) (  1, 15,  6)
     0.4783E-03    0.2368E-03    0.1173E-03
  (  1, 15,  6) (  1, 15,  6) (  1, 15,  6)


 NO OUTPUT CONTROL FOR STRESS PERIOD     11   TIME STEP     2
 
 SOLVING FOR HEAD 
     8 ITERATIONS FOR TIME STEP   3 IN STRESS PERIOD   11

 MAXIMUM HEAD CHANGE FOR EACH ITERATION:

    HEAD CHANGE   HEAD CHANGE   HEAD CHANGE   HEAD CHANGE   HEAD CHANGE
  LAYER,ROW,COL LAYER,ROW,COL LAYER,ROW,COL LAYER,ROW,COL LAYER,ROW,COL
 ----------------------------------------------------------------------
    -0.3358E-01    0.8714E-02    0.4314E-02    0.2135E-02    0.1057E-02
  (  1, 10,  4) (  1, 15,  6) (  1, 15,  6) (  1, 15,  6) (  1, 15,  6)
     0.5232E-03    0.2590E-03    0.1282E-03
  (  1, 15,  6) (  1, 15,  6) (  1, 15,  6)


 NO OUTPUT CONTROL FOR STRESS PERIOD     11   TIME STEP     3
 
 SOLVING FOR HEAD 
     8 ITERATIONS FOR TIME STEP   4 IN STRESS PERIOD   11

 MAXIMUM HEAD CHANGE FOR EACH ITERATION:

    HEAD CHANGE   HEAD CHANGE   HEAD CHANGE   HEAD CHANGE   HEAD CHANGE
  LAYER,ROW,COL LAYER,ROW,COL LAYER,ROW,COL LAYER,ROW,COL LAYER,ROW,COL
 ----------------------------------------------------------------------
    -0.3594E-01    0.9534E-02    0.4718E-02    0.2335E-02    0.1156E-02
  (  1, 10,  4) (  1, 15,  6) (  1, 15,  6) (  1, 15,  6) (  1, 15,  6)
     0.5720E-03    0.2831E-03    0.1401E-03
  (  1, 15,  6) (  1, 15,  6) (  1, 15,  6)


 NO OUTPUT CONTROL FOR STRESS PERIOD     11   TIME STEP     4
 
 SOLVING FOR HEAD 
     8 ITERATIONS FOR TIME STEP   5 IN STRESS PERIOD   11

 MAXIMUM HEAD CHANGE FOR EACH ITERATION:

    HEAD CHANGE   HEAD CHANGE   HEAD CHANGE   HEAD CHANGE   HEAD CHANGE
  LAYER,ROW,COL LAYER,ROW,COL LAYER,ROW,COL LAYER,ROW,COL LAYER,ROW,COL
 ----------------------------------------------------------------------
    -0.3839E-01    0.1043E-01    0.5159E-02    0.2553E-02    0.1263E-02
  (  1, 10,  4) (  1, 15,  6) (  1, 15,  6) (  1, 15,  6) (  1, 15,  6)
     0.6250E-03    0.3093E-03    0.1530E-03
  (  1, 15,  6) (  1, 15,  6) (  1, 15,  6)


 OUTPUT CONTROL FOR STRESS PERIOD     11   TIME STEP     5
    PRINT BUDGET
    SAVE BUDGET

           WELLS   PERIOD 11   STEP 5
WELL          1   LAYER          1   ROW          6   COL          4   RATE -3.0
WELL          2   LAYER          1   ROW          6   COL          5   RATE -3.0
WELL          3   LAYER          1   ROW          7   COL          4   RATE -3.0
WELL          4   LAYER          1   ROW          7   COL          5   RATE -3.0
WELL          5   LAYER          1   ROW          8   COL          4   RATE -3.0
WELL          6   LAYER          1   ROW          8   COL          5   RATE -3.0
WELL          7   LAYER          1   ROW          9   COL          4   RATE -3.0
WELL          8   LAYER          1   ROW          9   COL          5   RATE -3.0
WELL          9   LAYER          1   ROW         10   COL          4   RATE -3.0
WELL         10   LAYER          1   ROW         10   COL          5   RATE -3.0

  HEAD DEP BOUNDS   PERIOD   11   STEP   5
 BOUNDARY      1   LAYER   1   ROW    13   COL     1   RATE   -0.263051       COND    0.380000E-01
 BOUNDARY      2   LAYER   1   ROW    14   COL     9   RATE    0.209142       COND    0.380000E-01



 STREAM LISTING     PERIOD     11   STEP        5

 LAYER ROW COL. STREAM  RCH.  FLOW INTO     FLOW TO   FLOW OUT OF   OVRLND.     DIRECT     STREAM       STREAM     STREAM     STREAM   STREAMBED  STREAMBED  STREAMBED
                SEG.NO.  NO.  STRM. RCH.    AQUIFER    STRM. RCH.    RUNOFF     PRECIP       ET          HEAD       DEPTH      WIDTH   CONDCTNC.   GRADIENT  ELEVATION

   1    1    1     1     1    2.5000E+01  1.0652E+00   2.3935E+01  0.000E+00  0.000E+00  0.000E+00  1.09422E+03  1.172E+00  1.296E+01  5.830E-01  6.090E-01  1.093E+03
   1    2    2     1     2    2.3935E+01  3.0673E+00   2.0867E+01  0.000E+00  0.000E+00  0.000E+00  1.08920E+03  1.140E+00  1.253E+01  8.770E-01  1.166E+00  1.088E+03
   1    3    3     1     3    2.0867E+01  2.9022E+00   1.7965E+01  0.000E+00  0.000E+00  0.000E+00  1.08351E+03  1.091E+00  1.182E+01  7.095E-01  1.364E+00  1.082E+03
   1    3    4     1     4    1.7965E+01  2.4650E+00   1.5500E+01  0.000E+00  0.000E+00  0.000E+00  1.07845E+03  1.045E+00  1.098E+01  6.094E-01  1.348E+00  1.077E+03
   1    4    5     2     1    5.5003E+00  2.6616E+00   2.8387E+00  0.000E+00  0.000E+00  0.000E+00  1.07235E+03  4.123E-01  1.200E+01  7.800E-01  1.137E+00  1.072E+03
   1    5    6     2     2    2.8387E+00  1.9525E+00   8.8618E-01  0.000E+00  0.000E+00  0.000E+00  1.06676E+03  2.542E-01  1.200E+01  6.000E-01  1.085E+00  1.067E+03
   1    6    6     2     3    8.8618E-01  8.8618E-01   0.0000E+00  0.000E+00  0.000E+00  0.000E+00  1.06183E+03  3.663E-02  1.200E+01  6.000E-01  1.012E+00  1.062E+03
   1    7    6     2     4    0.0000E+00  0.0000E+00   0.0000E+00  0.000E+00  0.000E+00  0.000E+00  1.05708E+03  0.000E+00  1.200E+01  6.000E-01  1.000E+00  1.057E+03
   1    8    6     2     5    0.0000E+00  0.0000E+00   0.0000E+00  0.000E+00  0.000E+00  0.000E+00  1.05236E+03  0.000E+00  1.200E+01  6.000E-01  1.000E+00  1.052E+03
   1    3    5     3     1    1.0000E+01  2.8252E+00   7.1748E+00  0.000E+00  0.000E+00  0.000E+00  1.07555E+03  1.909E+00  9.636E+00  7.227E-01  1.955E+00  1.074E+03
   1    3    6     3     2    7.1748E+00  1.8499E+00   5.3249E+00  0.000E+00  0.000E+00  0.000E+00  1.07264E+03  1.727E+00  8.909E+00  6.682E-01  1.384E+00  1.071E+03
   1    3    7     3     3    5.3249E+00  8.7901E-01   4.4459E+00  0.000E+00  0.000E+00  0.000E+00  1.06987E+03  1.555E+00  8.218E+00  5.547E-01  7.923E-01  1.068E+03
   1    4    8     3     4    4.4459E+00  1.5617E+00   2.8842E+00  0.000E+00  0.000E+00  0.000E+00  1.06682E+03  1.364E+00  7.455E+00  6.709E-01  1.164E+00  1.065E+03
   1    5    8     3     5    2.8842E+00  1.5789E+00   1.3053E+00  0.000E+00  0.000E+00  0.000E+00  1.06362E+03  1.164E+00  6.655E+00  4.991E-01  1.582E+00  1.062E+03
   1    6    8     3     6    1.3053E+00  5.5980E-01   7.4548E-01  0.000E+00  0.000E+00  0.000E+00  1.06158E+03  1.036E+00  6.145E+00  1.844E-01  1.518E+00  1.061E+03
   1    5   10     4     1    1.0000E+01  9.0525E-01   9.0947E+00  0.000E+00  0.000E+00  0.000E+00  1.07835E+03  6.210E-01  1.000E+01  2.500E-01  1.207E+00  1.078E+03
   1    5    9     4     2    9.0947E+00  1.7835E+00   7.3113E+00  0.000E+00  0.000E+00  0.000E+00  1.07148E+03  5.670E-01  1.000E+01  5.000E-01  1.189E+00  1.071E+03
   1    6    8     4     3    7.3113E+00  1.2257E+00   6.0855E+00  0.000E+00  0.000E+00  0.000E+00  1.06368E+03  5.021E-01  1.000E+01  3.500E-01  1.167E+00  1.063E+03
   1    6    8     5     1    6.8310E+00  8.5806E-01   5.9730E+00  0.000E+00  0.000E+00  0.000E+00  1.05857E+03  5.746E-01  1.158E+01  4.631E-01  6.177E-01  1.058E+03
   1    7    7     5     2    5.9730E+00  1.7075E+00   4.2655E+00  0.000E+00  0.000E+00  0.000E+00  1.05403E+03  5.313E-01  1.012E+01  5.061E-01  1.124E+00  1.054E+03
   1    8    7     5     3    4.2655E+00  1.0226E+00   3.2429E+00  0.000E+00  0.000E+00  0.000E+00  1.04973E+03  4.767E-01  8.404E+00  2.941E-01  1.159E+00  1.049E+03
   1    8    6     5     4    3.2429E+00  6.0413E-01   2.6387E+00  0.000E+00  0.000E+00  0.000E+00  1.04669E+03  4.376E-01  7.259E+00  1.815E-01  1.110E+00  1.046E+03
   1    9    6     6     1    2.6387E+00  1.9443E+00   6.9443E-01  0.000E+00  0.000E+00  0.000E+00  1.04297E+03  2.405E-01  1.200E+01  6.000E-01  1.080E+00  1.043E+03
   1   10    7     6     2    6.9443E-01  6.9443E-01   0.0000E+00  0.000E+00  0.000E+00  0.000E+00  1.03821E+03  3.200E-02  1.200E+01  6.000E-01  1.011E+00  1.038E+03
   1   11    7     6     3    0.0000E+00  0.0000E+00   0.0000E+00  0.000E+00  0.000E+00  0.000E+00  1.03364E+03  0.000E+00  1.200E+01  6.000E-01  1.000E+00  1.034E+03
   1   12    7     6     4    0.0000E+00  0.0000E+00   0.0000E+00  0.000E+00  0.000E+00  0.000E+00  1.02909E+03  0.000E+00  1.200E+01  6.000E-01  2.654E-01  1.029E+03
   1   13    7     6     5    0.0000E+00 -7.7581E-01   7.7581E-01  0.000E+00  0.000E+00  0.000E+00  1.02601E+03  1.003E-01  1.200E+01  2.400E-01 -1.078E+00  1.026E+03
   1   14    9     7     1    1.5000E+02  2.0699E+00   1.4793E+02  0.000E+00  0.000E+00  0.000E+00  1.03987E+03  2.286E+00  5.529E+01  5.592E+00  1.234E-01  1.038E+03
   1   13    8     7     2    1.4793E+02  3.0354E+00   1.4489E+02  0.000E+00  0.000E+00  0.000E+00  1.03477E+03  2.272E+00  5.522E+01  6.144E+00  1.647E-01  1.032E+03
   1   13    7     7     3    1.4489E+02  2.4263E+00   1.4247E+02  0.000E+00  0.000E+00  0.000E+00  1.02968E+03  2.258E+00  5.516E+01  5.578E+00  1.450E-01  1.027E+03
   1   13    6     8     1    1.4324E+02  7.0207E-01   1.4254E+02  0.000E+00  0.000E+00  0.000E+00  1.02464E+03  2.766E+00  4.011E+01  4.087E+00  5.726E-02  1.022E+03
   1   13    5     8     2    1.4254E+02 -2.0593E+00   1.4460E+02  0.000E+00  0.000E+00  0.000E+00  1.01840E+03  2.771E+00  4.018E+01  4.094E+00 -1.677E-01  1.016E+03
   1   13    4     8     3    1.4460E+02 -3.7777E+00   1.4838E+02  0.000E+00  0.000E+00  0.000E+00  1.01217E+03  2.792E+00  4.048E+01  4.125E+00 -3.052E-01  1.009E+03
   1   13    3     8     4    1.4838E+02 -4.0040E+00   1.5238E+02  0.000E+00  0.000E+00  0.000E+00  1.00594E+03  2.820E+00  4.088E+01  4.166E+00 -3.204E-01  1.003E+03
   1   13    2     8     5    1.5238E+02 -2.0570E+00   1.5444E+02  0.000E+00  0.000E+00  0.000E+00  9.99716E+02  2.841E+00  4.119E+01  4.197E+00 -1.634E-01  9.969E+02
   1   13    1     8     6    1.5444E+02 -4.9983E-01   1.5494E+02  0.000E+00  0.000E+00  0.000E+00  9.94725E+02  2.850E+00  4.132E+01  2.526E+00 -6.595E-02  9.919E+02



 UBDSV3 SAVING "           GW ET" ON UNIT 61 AT TIME STEP 5, STRESS PERIOD 11
 UBDSV3 SAVING "    UZF RECHARGE" ON UNIT 61 AT TIME STEP 5, STRESS PERIOD 11
 UBDSV3 SAVING " SURFACE LEAKAGE" ON UNIT 61 AT TIME STEP 5, STRESS PERIOD 11
 UBDSV3 SAVING "       HORT+DUNN" ON UNIT 61 AT TIME STEP 5, STRESS PERIOD 11
 UBDSV3 SAVING "  STORAGE CHANGE" ON UNIT 61 AT TIME STEP 5, STRESS PERIOD 11


UNSATURATED ZONE PACKAGE VOLUMETRIC BUDGET FOR  TIME STEP     5 STRESS PERIOD   11
  ------------------------------------------------------------------------------



     CUMULATIVE VOLUMES      L**3       RATES FOR THIS TIME STEP      L**3/T
     ------------------                 ------------------------

           IN:                                      IN:
           ---                                      ---
        INFILTRATION =     1.4965237E+9          INFILTRATION =        8.4750000

          OUT:                                     OUT:
          ----                                     ----
              UZF ET =     1.9557581E+9                UZF ET =       48.6328695
        UZF RECHARGE =     3.4195338E+8          UZF RECHARGE =        9.5392231

            IN - OUT =    -8.0118770E+8              IN - OUT =      -49.6970926

          STORAGE:                                 STORAGE:
          --------                                 --------
      STORAGE CHANGE =    -8.0097536E+8        STORAGE CHANGE =      -49.6970731

 PERCENT DISCREPANCY =          -0.00     PERCENT DISCREPANCY =          -0.00




 PERCENT DISCREPANCY IS DIFFERENCE BETWEEN IN-OUT MINUS CHANGE IN STORAGE
 DIVIDED BY THE AVERAGE OF IN AND OUT TIMES 100






  -------------------------------------------------------------------------------------
  VOLUMETRIC BUDGET FOR ENTIRE MODEL AT END OF TIME STEP    5 IN STRESS PERIOD     11
  -------------------------------------------------------------------------------------

     CUMULATIVE VOLUMES      L**3       RATES FOR THIS TIME STEP      L**3/T
     ------------------                 ------------------------

           IN:                                      IN:
           ---                                      ---
             STORAGE =    88256238.0979               STORAGE =          20.4321
       CONSTANT HEAD =           0.0000         CONSTANT HEAD =           0.0000
               WELLS =           0.0000                 WELLS =           0.0000
     HEAD DEP BOUNDS =     5595771.1375       HEAD DEP BOUNDS =           0.2091
      STREAM LEAKAGE =  1155345870.8815        STREAM LEAKAGE =          43.2337
        UZF RECHARGE =   341953382.4764          UZF RECHARGE =           9.5392
               GW ET =           0.0000                 GW ET =           0.0000
     SURFACE LEAKAGE =           0.0000       SURFACE LEAKAGE =           0.0000

            TOTAL IN =  1591151262.5932              TOTAL IN =          73.4141

          OUT:                                     OUT:
          ----                                     ----
             STORAGE =   431041593.8676               STORAGE =          11.2676
       CONSTANT HEAD =           0.0000         CONSTANT HEAD =           0.0000
               WELLS =   330509149.7779                 WELLS =          30.0000
     HEAD DEP BOUNDS =     7058246.0889       HEAD DEP BOUNDS =           0.2631
      STREAM LEAKAGE =   359386883.4578        STREAM LEAKAGE =          13.1737
        UZF RECHARGE =           0.0000          UZF RECHARGE =           0.0000
               GW ET =   463043740.6689                 GW ET =          18.7036
     SURFACE LEAKAGE =           0.0000       SURFACE LEAKAGE =           0.0000

           TOTAL OUT =  1591039613.8611             TOTAL OUT =          73.4080

            IN - OUT =      111648.7321              IN - OUT =       6.1035E-03

 PERCENT DISCREPANCY =           0.01     PERCENT DISCREPANCY =           0.01


          TIME SUMMARY AT END OF TIME STEP     5 IN STRESS PERIOD     11
                    SECONDS     MINUTES      HOURS       DAYS        YEARS
                    -----------------------------------------------------------
   TIME STEP LENGTH 1.21100E+05  2018.3      33.639      1.4016     3.83743E-03
 STRESS PERIOD TIME 5.04972E+05  8416.2      140.27      5.8446     1.60016E-02
         TOTAL TIME 2.67850E+07 4.46416E+05  7440.3      310.01     0.84876    
 
 
 SOLVING FOR HEAD 
     8 ITERATIONS FOR TIME STEP   6 IN STRESS PERIOD   11

 MAXIMUM HEAD CHANGE FOR EACH ITERATION:

    HEAD CHANGE   HEAD CHANGE   HEAD CHANGE   HEAD CHANGE   HEAD CHANGE
  LAYER,ROW,COL LAYER,ROW,COL LAYER,ROW,COL LAYER,ROW,COL LAYER,ROW,COL
 ----------------------------------------------------------------------
    -0.4173E-01    0.9955E-02    0.4836E-02    0.2350E-02    0.1141E-02
  (  1,  9,  4) (  1, 15,  6) (  1, 15,  6) (  1, 15,  6) (  1, 15,  6)
     0.5546E-03    0.2694E-03    0.1309E-03
  (  1, 15,  6) (  1, 15,  6) (  1, 15,  6)


 NO OUTPUT CONTROL FOR STRESS PERIOD     11   TIME STEP     6
 
 SOLVING FOR HEAD 
     8 ITERATIONS FOR TIME STEP   7 IN STRESS PERIOD   11

 MAXIMUM HEAD CHANGE FOR EACH ITERATION:

    HEAD CHANGE   HEAD CHANGE   HEAD CHANGE   HEAD CHANGE   HEAD CHANGE
  LAYER,ROW,COL LAYER,ROW,COL LAYER,ROW,COL LAYER,ROW,COL LAYER,ROW,COL
 ----------------------------------------------------------------------
    -0.4541E-01    0.1052E-01    0.5078E-02    0.2467E-02    0.1198E-02
  (  1,  9,  4) (  1,  7,  1) (  1, 15,  6) (  1, 15,  6) (  1, 15,  6)
     0.5819E-03    0.2826E-03    0.1373E-03
  (  1, 15,  6) (  1, 15,  6) (  1, 15,  6)


 NO OUTPUT CONTROL FOR STRESS PERIOD     11   TIME STEP     7
 
 SOLVING FOR HEAD 
     8 ITERATIONS FOR TIME STEP   8 IN STRESS PERIOD   11

 MAXIMUM HEAD CHANGE FOR EACH ITERATION:

    HEAD CHANGE   HEAD CHANGE   HEAD CHANGE   HEAD CHANGE   HEAD CHANGE
  LAYER,ROW,COL LAYER,ROW,COL LAYER,ROW,COL LAYER,ROW,COL LAYER,ROW,COL
 ----------------------------------------------------------------------
    -0.4931E-01    0.1141E-01    0.5542E-02    0.2691E-02    0.1307E-02
  (  1,  9,  4) (  1, 15,  6) (  1, 15,  6) (  1, 15,  6) (  1, 15,  6)
     0.6344E-03    0.3081E-03    0.1496E-03
  (  1, 15,  6) (  1, 15,  6) (  1, 15,  6)


 NO OUTPUT CONTROL FOR STRESS PERIOD     11   TIME STEP     8
 
 SOLVING FOR HEAD 
     8 ITERATIONS FOR TIME STEP   9 IN STRESS PERIOD   11

 MAXIMUM HEAD CHANGE FOR EACH ITERATION:

    HEAD CHANGE   HEAD CHANGE   HEAD CHANGE   HEAD CHANGE   HEAD CHANGE
  LAYER,ROW,COL LAYER,ROW,COL LAYER,ROW,COL LAYER,ROW,COL LAYER,ROW,COL
 ----------------------------------------------------------------------
    -0.5344E-01    0.1245E-01    0.6042E-02    0.2933E-02    0.1424E-02
  (  1,  9,  4) (  1, 15,  6) (  1, 15,  6) (  1, 15,  6) (  1, 15,  6)
     0.6912E-03    0.3355E-03    0.1629E-03
  (  1, 15,  6) (  1, 15,  6) (  1, 15,  6)


 NO OUTPUT CONTROL FOR STRESS PERIOD     11   TIME STEP     9
 
 SOLVING FOR HEAD 
     8 ITERATIONS FOR TIME STEP  10 IN STRESS PERIOD   11

 MAXIMUM HEAD CHANGE FOR EACH ITERATION:

    HEAD CHANGE   HEAD CHANGE   HEAD CHANGE   HEAD CHANGE   HEAD CHANGE
  LAYER,ROW,COL LAYER,ROW,COL LAYER,ROW,COL LAYER,ROW,COL LAYER,ROW,COL
 ----------------------------------------------------------------------
    -0.5777E-01    0.1313E-01    0.6344E-02    0.3064E-02    0.1480E-02
  (  1,  9,  4) (  1, 15,  6) (  1, 15,  6) (  1, 15,  6) (  1, 15,  6)
     0.7149E-03    0.3453E-03    0.1668E-03
  (  1, 15,  6) (  1, 15,  6) (  1, 15,  6)


 OUTPUT CONTROL FOR STRESS PERIOD     11   TIME STEP    10
    PRINT BUDGET
    SAVE BUDGET

           WELLS   PERIOD 11   STEP 10
WELL          1   LAYER          1   ROW          6   COL          4   RATE -3.0
WELL          2   LAYER          1   ROW          6   COL          5   RATE -3.0
WELL          3   LAYER          1   ROW          7   COL          4   RATE -3.0
WELL          4   LAYER          1   ROW          7   COL          5   RATE -3.0
WELL          5   LAYER          1   ROW          8   COL          4   RATE -3.0
WELL          6   LAYER          1   ROW          8   COL          5   RATE -3.0
WELL          7   LAYER          1   ROW          9   COL          4   RATE -3.0
WELL          8   LAYER          1   ROW          9   COL          5   RATE -3.0
WELL          9   LAYER          1   ROW         10   COL          4   RATE -3.0
WELL         10   LAYER          1   ROW         10   COL          5   RATE -3.0

  HEAD DEP BOUNDS   PERIOD   11   STEP  10
 BOUNDARY      1   LAYER   1   ROW    13   COL     1   RATE   -0.263019       COND    0.380000E-01
 BOUNDARY      2   LAYER   1   ROW    14   COL     9   RATE    0.209190       COND    0.380000E-01



 STREAM LISTING     PERIOD     11   STEP       10

 LAYER ROW COL. STREAM  RCH.  FLOW INTO     FLOW TO   FLOW OUT OF   OVRLND.     DIRECT     STREAM       STREAM     STREAM     STREAM   STREAMBED  STREAMBED  STREAMBED
                SEG.NO.  NO.  STRM. RCH.    AQUIFER    STRM. RCH.    RUNOFF     PRECIP       ET          HEAD       DEPTH      WIDTH   CONDCTNC.   GRADIENT  ELEVATION

   1    1    1     1     1    2.5000E+01  1.0669E+00   2.3933E+01  0.000E+00  0.000E+00  0.000E+00  1.09422E+03  1.172E+00  1.296E+01  5.830E-01  6.100E-01  1.093E+03
   1    2    2     1     2    2.3933E+01  3.0687E+00   2.0864E+01  0.000E+00  0.000E+00  0.000E+00  1.08920E+03  1.140E+00  1.253E+01  8.770E-01  1.166E+00  1.088E+03
   1    3    3     1     3    2.0864E+01  2.9019E+00   1.7962E+01  0.000E+00  0.000E+00  0.000E+00  1.08351E+03  1.091E+00  1.182E+01  7.094E-01  1.364E+00  1.082E+03
   1    3    4     1     4    1.7962E+01  2.4648E+00   1.5498E+01  0.000E+00  0.000E+00  0.000E+00  1.07845E+03  1.045E+00  1.098E+01  6.094E-01  1.348E+00  1.077E+03
   1    4    5     2     1    5.4977E+00  2.6615E+00   2.8363E+00  0.000E+00  0.000E+00  0.000E+00  1.07235E+03  4.121E-01  1.200E+01  7.800E-01  1.137E+00  1.072E+03
   1    5    6     2     2    2.8363E+00  1.9524E+00   8.8385E-01  0.000E+00  0.000E+00  0.000E+00  1.06676E+03  2.540E-01  1.200E+01  6.000E-01  1.085E+00  1.067E+03
   1    6    6     2     3    8.8385E-01  8.8385E-01   0.0000E+00  0.000E+00  0.000E+00  0.000E+00  1.06183E+03  3.657E-02  1.200E+01  6.000E-01  1.012E+00  1.062E+03
   1    7    6     2     4    0.0000E+00  0.0000E+00   0.0000E+00  0.000E+00  0.000E+00  0.000E+00  1.05708E+03  0.000E+00  1.200E+01  6.000E-01  1.000E+00  1.057E+03
   1    8    6     2     5    0.0000E+00  0.0000E+00   0.0000E+00  0.000E+00  0.000E+00  0.000E+00  1.05236E+03  0.000E+00  1.200E+01  6.000E-01  1.000E+00  1.052E+03
   1    3    5     3     1    1.0000E+01  2.8252E+00   7.1748E+00  0.000E+00  0.000E+00  0.000E+00  1.07555E+03  1.909E+00  9.636E+00  7.227E-01  1.955E+00  1.074E+03
   1    3    6     3     2    7.1748E+00  1.8663E+00   5.3085E+00  0.000E+00  0.000E+00  0.000E+00  1.07264E+03  1.727E+00  8.909E+00  6.682E-01  1.397E+00  1.071E+03
   1    3    7     3     3    5.3085E+00  8.9414E-01   4.4143E+00  0.000E+00  0.000E+00  0.000E+00  1.06987E+03  1.555E+00  8.218E+00  5.547E-01  8.059E-01  1.068E+03
   1    4    8     3     4    4.4143E+00  1.5653E+00   2.8491E+00  0.000E+00  0.000E+00  0.000E+00  1.06682E+03  1.364E+00  7.455E+00  6.709E-01  1.167E+00  1.065E+03
   1    5    8     3     5    2.8491E+00  1.5789E+00   1.2701E+00  0.000E+00  0.000E+00  0.000E+00  1.06362E+03  1.164E+00  6.655E+00  4.991E-01  1.582E+00  1.062E+03
   1    6    8     3     6    1.2701E+00  5.5980E-01   7.1035E-01  0.000E+00  0.000E+00  0.000E+00  1.06158E+03  1.036E+00  6.145E+00  1.844E-01  1.518E+00  1.061E+03
   1    5   10     4     1    1.0000E+01  9.0525E-01   9.0947E+00  0.000E+00  0.000E+00  0.000E+00  1.07835E+03  6.210E-01  1.000E+01  2.500E-01  1.207E+00  1.078E+03
   1    5    9     4     2    9.0947E+00  1.7835E+00   7.3113E+00  0.000E+00  0.000E+00  0.000E+00  1.07148E+03  5.670E-01  1.000E+01  5.000E-01  1.189E+00  1.071E+03
   1    6    8     4     3    7.3113E+00  1.2257E+00   6.0855E+00  0.000E+00  0.000E+00  0.000E+00  1.06368E+03  5.021E-01  1.000E+01  3.500E-01  1.167E+00  1.063E+03
   1    6    8     5     1    6.7959E+00  8.4825E-01   5.9476E+00  0.000E+00  0.000E+00  0.000E+00  1.05857E+03  5.736E-01  1.154E+01  4.617E-01  6.124E-01  1.058E+03
   1    7    7     5     2    5.9476E+00  1.6867E+00   4.2609E+00  0.000E+00  0.000E+00  0.000E+00  1.05403E+03  5.308E-01  1.011E+01  5.053E-01  1.113E+00  1.054E+03
   1    8    7     5     3    4.2609E+00  1.0219E+00   3.2390E+00  0.000E+00  0.000E+00  0.000E+00  1.04973E+03  4.765E-01  8.398E+00  2.939E-01  1.159E+00  1.049E+03
   1    8    6     5     4    3.2390E+00  6.0003E-01   2.6390E+00  0.000E+00  0.000E+00  0.000E+00  1.04669E+03  4.375E-01  7.256E+00  1.814E-01  1.103E+00  1.046E+03
   1    9    6     6     1    2.6390E+00  1.9443E+00   6.9469E-01  0.000E+00  0.000E+00  0.000E+00  1.04297E+03  2.405E-01  1.200E+01  6.000E-01  1.080E+00  1.043E+03
   1   10    7     6     2    6.9469E-01  6.9469E-01   0.0000E+00  0.000E+00  0.000E+00  0.000E+00  1.03821E+03  3.201E-02  1.200E+01  6.000E-01  1.011E+00  1.038E+03
   1   11    7     6     3    0.0000E+00  0.0000E+00   0.0000E+00  0.000E+00  0.000E+00  0.000E+00  1.03364E+03  0.000E+00  1.200E+01  6.000E-01  1.000E+00  1.034E+03
   1   12    7     6     4    0.0000E+00  0.0000E+00   0.0000E+00  0.000E+00  0.000E+00  0.000E+00  1.02909E+03  0.000E+00  1.200E+01  6.000E-01  2.637E-01  1.029E+03
   1   13    7     6     5    0.0000E+00 -7.7612E-01   7.7612E-01  0.000E+00  0.000E+00  0.000E+00  1.02601E+03  1.003E-01  1.200E+01  2.400E-01 -1.078E+00  1.026E+03
   1   14    9     7     1    1.5000E+02  2.0768E+00   1.4792E+02  0.000E+00  0.000E+00  0.000E+00  1.03987E+03  2.286E+00  5.529E+01  5.592E+00  1.238E-01  1.038E+03
   1   13    8     7     2    1.4792E+02  3.0424E+00   1.4488E+02  0.000E+00  0.000E+00  0.000E+00  1.03477E+03  2.272E+00  5.522E+01  6.144E+00  1.651E-01  1.032E+03
   1   13    7     7     3    1.4488E+02  2.4186E+00   1.4246E+02  0.000E+00  0.000E+00  0.000E+00  1.02968E+03  2.257E+00  5.516E+01  5.578E+00  1.445E-01  1.027E+03
   1   13    6     8     1    1.4324E+02  7.0419E-01   1.4253E+02  0.000E+00  0.000E+00  0.000E+00  1.02464E+03  2.766E+00  4.011E+01  4.087E+00  5.743E-02  1.022E+03
   1   13    5     8     2    1.4253E+02 -2.0644E+00   1.4460E+02  0.000E+00  0.000E+00  0.000E+00  1.01840E+03  2.771E+00  4.018E+01  4.094E+00 -1.681E-01  1.016E+03
   1   13    4     8     3    1.4460E+02 -3.7839E+00   1.4838E+02  0.000E+00  0.000E+00  0.000E+00  1.01217E+03  2.792E+00  4.048E+01  4.125E+00 -3.057E-01  1.009E+03
   1   13    3     8     4    1.4838E+02 -4.0021E+00   1.5238E+02  0.000E+00  0.000E+00  0.000E+00  1.00594E+03  2.820E+00  4.088E+01  4.166E+00 -3.202E-01  1.003E+03
   1   13    2     8     5    1.5238E+02 -2.0501E+00   1.5443E+02  0.000E+00  0.000E+00  0.000E+00  9.99716E+02  2.841E+00  4.119E+01  4.197E+00 -1.628E-01  9.969E+02
   1   13    1     8     6    1.5443E+02 -4.9778E-01   1.5493E+02  0.000E+00  0.000E+00  0.000E+00  9.94725E+02  2.850E+00  4.132E+01  2.526E+00 -6.568E-02  9.919E+02



 UBDSV3 SAVING "           GW ET" ON UNIT 61 AT TIME STEP 10, STRESS PERIOD 11
 UBDSV3 SAVING "    UZF RECHARGE" ON UNIT 61 AT TIME STEP 10, STRESS PERIOD 11
 UBDSV3 SAVING " SURFACE LEAKAGE" ON UNIT 61 AT TIME STEP 10, STRESS PERIOD 11
 UBDSV3 SAVING "       HORT+DUNN" ON UNIT 61 AT TIME STEP 10, STRESS PERIOD 11
 UBDSV3 SAVING "  STORAGE CHANGE" ON UNIT 61 AT TIME STEP 10, STRESS PERIOD 11


UNSATURATED ZONE PACKAGE VOLUMETRIC BUDGET FOR  TIME STEP    10 STRESS PERIOD   11
  ------------------------------------------------------------------------------



     CUMULATIVE VOLUMES      L**3       RATES FOR THIS TIME STEP      L**3/T
     ------------------                 ------------------------

           IN:                                      IN:
           ---                                      ---
        INFILTRATION =     1.5034161E+9          INFILTRATION =        8.4750000

          OUT:                                     OUT:
          ----                                     ----
              UZF ET =     1.9921831E+9                UZF ET =       42.0444518
        UZF RECHARGE =     3.4936367E+8          UZF RECHARGE =        9.0430157

            IN - OUT =    -8.3813063E+8              IN - OUT =      -42.6124674

          STORAGE:                                 STORAGE:
          --------                                 --------
      STORAGE CHANGE =    -8.3792350E+8        STORAGE CHANGE =      -42.6418470

 PERCENT DISCREPANCY =          -0.00     PERCENT DISCREPANCY =           0.06




 PERCENT DISCREPANCY IS DIFFERENCE BETWEEN IN-OUT MINUS CHANGE IN STORAGE
 DIVIDED BY THE AVERAGE OF IN AND OUT TIMES 100






  -------------------------------------------------------------------------------------
  VOLUMETRIC BUDGET FOR ENTIRE MODEL AT END OF TIME STEP   10 IN STRESS PERIOD     11
  -------------------------------------------------------------------------------------

     CUMULATIVE VOLUMES      L**3       RATES FOR THIS TIME STEP      L**3/T
     ------------------                 ------------------------

           IN:                                      IN:
           ---                                      ---
             STORAGE =   103329043.0327               STORAGE =          17.6008
       CONSTANT HEAD =           0.0000         CONSTANT HEAD =           0.0000
               WELLS =           0.0000                 WELLS =           0.0000
     HEAD DEP BOUNDS =     5765884.0848       HEAD DEP BOUNDS =           0.2092
      STREAM LEAKAGE =  1190512814.5334        STREAM LEAKAGE =          43.2420
        UZF RECHARGE =   349363670.5641          UZF RECHARGE =           9.0430
               GW ET =           0.0000                 GW ET =           0.0000
     SURFACE LEAKAGE =           0.0000       SURFACE LEAKAGE =           0.0000

            TOTAL IN =  1648971412.2150              TOTAL IN =          70.0950

          OUT:                                     OUT:
          ----                                     ----
             STORAGE =   438306685.1770               STORAGE =           7.9261
       CONSTANT HEAD =           0.0000         CONSTANT HEAD =           0.0000
               WELLS =   354907006.9867                 WELLS =          30.0000
     HEAD DEP BOUNDS =     7272158.8841       HEAD DEP BOUNDS =           0.2630
      STREAM LEAKAGE =   370100155.2311        STREAM LEAKAGE =          13.1744
        UZF RECHARGE =           0.0000          UZF RECHARGE =           0.0000
               GW ET =   478269865.8320                 GW ET =          18.7270
     SURFACE LEAKAGE =           0.0000       SURFACE LEAKAGE =           0.0000

           TOTAL OUT =  1648855872.1109             TOTAL OUT =          70.0905

            IN - OUT =      115540.1042              IN - OUT =       4.4629E-03

 PERCENT DISCREPANCY =           0.01     PERCENT DISCREPANCY =           0.01


          TIME SUMMARY AT END OF TIME STEP    10 IN STRESS PERIOD     11
                    SECONDS     MINUTES      HOURS       DAYS        YEARS
                    -----------------------------------------------------------
   TIME STEP LENGTH 1.95033E+05  3250.6      54.176      2.2573     6.18023E-03
 STRESS PERIOD TIME 1.31823E+06  21971.      366.18      15.257     4.17723E-02
         TOTAL TIME 2.75982E+07 4.59971E+05  7666.2      319.42     0.87454    
 
 
 SOLVING FOR HEAD 
     9 ITERATIONS FOR TIME STEP  11 IN STRESS PERIOD   11

 MAXIMUM HEAD CHANGE FOR EACH ITERATION:

    HEAD CHANGE   HEAD CHANGE   HEAD CHANGE   HEAD CHANGE   HEAD CHANGE
  LAYER,ROW,COL LAYER,ROW,COL LAYER,ROW,COL LAYER,ROW,COL LAYER,ROW,COL
 ----------------------------------------------------------------------
    -0.6229E-01    0.1952E-01    0.9640E-02    0.4760E-02    0.2351E-02
  (  1,  9,  4) (  1, 15,  5) (  1, 15,  5) (  1, 15,  5) (  1, 15,  5)
     0.1161E-02    0.5731E-03    0.2830E-03    0.1397E-03
  (  1, 15,  5) (  1, 15,  5) (  1, 15,  5) (  1, 15,  5)


 NO OUTPUT CONTROL FOR STRESS PERIOD     11   TIME STEP    11
 
 SOLVING FOR HEAD 
     9 ITERATIONS FOR TIME STEP  12 IN STRESS PERIOD   11

 MAXIMUM HEAD CHANGE FOR EACH ITERATION:

    HEAD CHANGE   HEAD CHANGE   HEAD CHANGE   HEAD CHANGE   HEAD CHANGE
  LAYER,ROW,COL LAYER,ROW,COL LAYER,ROW,COL LAYER,ROW,COL LAYER,ROW,COL
 ----------------------------------------------------------------------
    -0.6696E-01    0.1954E-01    0.9474E-02    0.4593E-02    0.2227E-02
  (  1,  9,  4) (  1, 15,  5) (  1, 15,  5) (  1, 15,  5) (  1, 15,  5)
     0.1079E-02    0.5233E-03    0.2537E-03    0.1230E-03
  (  1, 15,  5) (  1, 15,  5) (  1, 15,  5) (  1, 15,  5)


 NO OUTPUT CONTROL FOR STRESS PERIOD     11   TIME STEP    12
 
 SOLVING FOR HEAD 
     9 ITERATIONS FOR TIME STEP  13 IN STRESS PERIOD   11

 MAXIMUM HEAD CHANGE FOR EACH ITERATION:

    HEAD CHANGE   HEAD CHANGE   HEAD CHANGE   HEAD CHANGE   HEAD CHANGE
  LAYER,ROW,COL LAYER,ROW,COL LAYER,ROW,COL LAYER,ROW,COL LAYER,ROW,COL
 ----------------------------------------------------------------------
    -0.7201E-01    0.1951E-01    0.9456E-02    0.4582E-02    0.2221E-02
  (  1,  8,  4) (  1, 15,  5) (  1, 15,  5) (  1, 15,  5) (  1, 15,  5)
     0.1076E-02    0.5215E-03    0.2527E-03    0.1225E-03
  (  1, 15,  5) (  1, 15,  5) (  1, 15,  5) (  1, 15,  5)


 NO OUTPUT CONTROL FOR STRESS PERIOD     11   TIME STEP    13
 
 SOLVING FOR HEAD 
     9 ITERATIONS FOR TIME STEP  14 IN STRESS PERIOD   11

 MAXIMUM HEAD CHANGE FOR EACH ITERATION:

    HEAD CHANGE   HEAD CHANGE   HEAD CHANGE   HEAD CHANGE   HEAD CHANGE
  LAYER,ROW,COL LAYER,ROW,COL LAYER,ROW,COL LAYER,ROW,COL LAYER,ROW,COL
 ----------------------------------------------------------------------
    -0.7740E-01    0.2256E-01    0.1095E-01    0.5318E-02    0.2582E-02
  (  1,  8,  4) (  1, 10, 10) (  1, 10, 10) (  1, 10, 10) (  1, 10, 10)
     0.1253E-02    0.6084E-03    0.2954E-03    0.1434E-03
  (  1, 10, 10) (  1, 10, 10) (  1, 10, 10) (  1, 10, 10)


 NO OUTPUT CONTROL FOR STRESS PERIOD     11   TIME STEP    14
 
 SOLVING FOR HEAD 
     9 ITERATIONS FOR TIME STEP  15 IN STRESS PERIOD   11

 MAXIMUM HEAD CHANGE FOR EACH ITERATION:

    HEAD CHANGE   HEAD CHANGE   HEAD CHANGE   HEAD CHANGE   HEAD CHANGE
  LAYER,ROW,COL LAYER,ROW,COL LAYER,ROW,COL LAYER,ROW,COL LAYER,ROW,COL
 ----------------------------------------------------------------------
    -0.8292E-01    0.2384E-01    0.1157E-01    0.5616E-02    0.2725E-02
  (  1,  8,  4) (  1, 10, 10) (  1, 10, 10) (  1, 10, 10) (  1, 10, 10)
     0.1323E-02    0.6419E-03    0.3115E-03    0.1512E-03
  (  1, 10, 10) (  1, 10, 10) (  1, 10, 10) (  1, 10, 10)


 OUTPUT CONTROL FOR STRESS PERIOD     11   TIME STEP    15
    PRINT BUDGET
    PRINT HEAD FOR ALL LAYERS
    SAVE HEAD FOR ALL LAYERS
    SAVE BUDGET

           WELLS   PERIOD 11   STEP 15
WELL          1   LAYER          1   ROW          6   COL          4   RATE -3.0
WELL          2   LAYER          1   ROW          6   COL          5   RATE -3.0
WELL          3   LAYER          1   ROW          7   COL          4   RATE -3.0
WELL          4   LAYER          1   ROW          7   COL          5   RATE -3.0
WELL          5   LAYER          1   ROW          8   COL          4   RATE -3.0
WELL          6   LAYER          1   ROW          8   COL          5   RATE -3.0
WELL          7   LAYER          1   ROW          9   COL          4   RATE -3.0
WELL          8   LAYER          1   ROW          9   COL          5   RATE -3.0
WELL          9   LAYER          1   ROW         10   COL          4   RATE -3.0
WELL         10   LAYER          1   ROW         10   COL          5   RATE -3.0

  HEAD DEP BOUNDS   PERIOD   11   STEP  15
 BOUNDARY      1   LAYER   1   ROW    13   COL     1   RATE   -0.262931       COND    0.380000E-01
 BOUNDARY      2   LAYER   1   ROW    14   COL     9   RATE    0.209260       COND    0.380000E-01



 STREAM LISTING     PERIOD     11   STEP       15

 LAYER ROW COL. STREAM  RCH.  FLOW INTO     FLOW TO   FLOW OUT OF   OVRLND.     DIRECT     STREAM       STREAM     STREAM     STREAM   STREAMBED  STREAMBED  STREAMBED
                SEG.NO.  NO.  STRM. RCH.    AQUIFER    STRM. RCH.    RUNOFF     PRECIP       ET          HEAD       DEPTH      WIDTH   CONDCTNC.   GRADIENT  ELEVATION

   1    1    1     1     1    2.5000E+01  1.0696E+00   2.3930E+01  0.000E+00  0.000E+00  0.000E+00  1.09422E+03  1.172E+00  1.296E+01  5.830E-01  6.116E-01  1.093E+03
   1    2    2     1     2    2.3930E+01  3.0706E+00   2.0860E+01  0.000E+00  0.000E+00  0.000E+00  1.08920E+03  1.140E+00  1.253E+01  8.769E-01  1.167E+00  1.088E+03
   1    3    3     1     3    2.0860E+01  2.9015E+00   1.7958E+01  0.000E+00  0.000E+00  0.000E+00  1.08351E+03  1.090E+00  1.182E+01  7.093E-01  1.363E+00  1.082E+03
   1    3    4     1     4    1.7958E+01  2.4644E+00   1.5494E+01  0.000E+00  0.000E+00  0.000E+00  1.07845E+03  1.045E+00  1.098E+01  6.093E-01  1.348E+00  1.077E+03
   1    4    5     2     1    5.4938E+00  2.6613E+00   2.8325E+00  0.000E+00  0.000E+00  0.000E+00  1.07235E+03  4.119E-01  1.200E+01  7.800E-01  1.137E+00  1.072E+03
   1    5    6     2     2    2.8325E+00  1.9522E+00   8.8029E-01  0.000E+00  0.000E+00  0.000E+00  1.06676E+03  2.537E-01  1.200E+01  6.000E-01  1.085E+00  1.067E+03
   1    6    6     2     3    8.8029E-01  8.8029E-01   0.0000E+00  0.000E+00  0.000E+00  0.000E+00  1.06183E+03  3.648E-02  1.200E+01  6.000E-01  1.012E+00  1.062E+03
   1    7    6     2     4    0.0000E+00  0.0000E+00   0.0000E+00  0.000E+00  0.000E+00  0.000E+00  1.05708E+03  0.000E+00  1.200E+01  6.000E-01  1.000E+00  1.057E+03
   1    8    6     2     5    0.0000E+00  0.0000E+00   0.0000E+00  0.000E+00  0.000E+00  0.000E+00  1.05236E+03  0.000E+00  1.200E+01  6.000E-01  1.000E+00  1.052E+03
   1    3    5     3     1    1.0000E+01  2.8252E+00   7.1748E+00  0.000E+00  0.000E+00  0.000E+00  1.07555E+03  1.909E+00  9.636E+00  7.227E-01  1.955E+00  1.074E+03
   1    3    6     3     2    7.1748E+00  1.8984E+00   5.2764E+00  0.000E+00  0.000E+00  0.000E+00  1.07264E+03  1.727E+00  8.909E+00  6.682E-01  1.421E+00  1.071E+03
   1    3    7     3     3    5.2764E+00  9.1113E-01   4.3653E+00  0.000E+00  0.000E+00  0.000E+00  1.06987E+03  1.555E+00  8.218E+00  5.547E-01  8.212E-01  1.068E+03
   1    4    8     3     4    4.3653E+00  1.5693E+00   2.7960E+00  0.000E+00  0.000E+00  0.000E+00  1.06682E+03  1.364E+00  7.455E+00  6.709E-01  1.170E+00  1.065E+03
   1    5    8     3     5    2.7960E+00  1.5789E+00   1.2170E+00  0.000E+00  0.000E+00  0.000E+00  1.06362E+03  1.164E+00  6.655E+00  4.991E-01  1.582E+00  1.062E+03
   1    6    8     3     6    1.2170E+00  5.5980E-01   6.5723E-01  0.000E+00  0.000E+00  0.000E+00  1.06158E+03  1.036E+00  6.145E+00  1.844E-01  1.518E+00  1.061E+03
   1    5   10     4     1    1.0000E+01  9.0525E-01   9.0947E+00  0.000E+00  0.000E+00  0.000E+00  1.07835E+03  6.210E-01  1.000E+01  2.500E-01  1.207E+00  1.078E+03
   1    5    9     4     2    9.0947E+00  1.7835E+00   7.3113E+00  0.000E+00  0.000E+00  0.000E+00  1.07148E+03  5.670E-01  1.000E+01  5.000E-01  1.189E+00  1.071E+03
   1    6    8     4     3    7.3113E+00  1.2257E+00   6.0855E+00  0.000E+00  0.000E+00  0.000E+00  1.06368E+03  5.021E-01  1.000E+01  3.500E-01  1.167E+00  1.063E+03
   1    6    8     5     1    6.7428E+00  8.3315E-01   5.9096E+00  0.000E+00  0.000E+00  0.000E+00  1.05857E+03  5.722E-01  1.149E+01  4.598E-01  6.041E-01  1.058E+03
   1    7    7     5     2    5.9096E+00  1.6621E+00   4.2475E+00  0.000E+00  0.000E+00  0.000E+00  1.05403E+03  5.298E-01  1.007E+01  5.037E-01  1.100E+00  1.054E+03
   1    8    7     5     3    4.2475E+00  1.0197E+00   3.2278E+00  0.000E+00  0.000E+00  0.000E+00  1.04973E+03  4.759E-01  8.382E+00  2.934E-01  1.159E+00  1.049E+03
   1    8    6     5     4    3.2278E+00  6.0507E-01   2.6227E+00  0.000E+00  0.000E+00  0.000E+00  1.04669E+03  4.368E-01  7.236E+00  1.809E-01  1.115E+00  1.046E+03
   1    9    6     6     1    2.6227E+00  1.9435E+00   6.7925E-01  0.000E+00  0.000E+00  0.000E+00  1.04297E+03  2.391E-01  1.200E+01  6.000E-01  1.080E+00  1.043E+03
   1   10    7     6     2    6.7925E-01  6.7925E-01   0.0000E+00  0.000E+00  0.000E+00  0.000E+00  1.03821E+03  3.158E-02  1.200E+01  6.000E-01  1.011E+00  1.038E+03
   1   11    7     6     3    0.0000E+00  0.0000E+00   0.0000E+00  0.000E+00  0.000E+00  0.000E+00  1.03364E+03  0.000E+00  1.200E+01  6.000E-01  9.932E-01  1.034E+03
   1   12    7     6     4    0.0000E+00  0.0000E+00   0.0000E+00  0.000E+00  0.000E+00  0.000E+00  1.02909E+03  0.000E+00  1.200E+01  6.000E-01  2.607E-01  1.029E+03
   1   13    7     6     5    0.0000E+00 -7.7634E-01   7.7634E-01  0.000E+00  0.000E+00  0.000E+00  1.02601E+03  1.003E-01  1.200E+01  2.400E-01 -1.078E+00  1.026E+03
   1   14    9     7     1    1.5000E+02  2.0870E+00   1.4791E+02  0.000E+00  0.000E+00  0.000E+00  1.03987E+03  2.286E+00  5.529E+01  5.592E+00  1.244E-01  1.038E+03
   1   13    8     7     2    1.4791E+02  3.0528E+00   1.4486E+02  0.000E+00  0.000E+00  0.000E+00  1.03477E+03  2.272E+00  5.522E+01  6.144E+00  1.656E-01  1.032E+03
   1   13    7     7     3    1.4486E+02  2.4128E+00   1.4245E+02  0.000E+00  0.000E+00  0.000E+00  1.02968E+03  2.257E+00  5.516E+01  5.578E+00  1.442E-01  1.027E+03
   1   13    6     8     1    1.4322E+02  7.0571E-01   1.4252E+02  0.000E+00  0.000E+00  0.000E+00  1.02464E+03  2.766E+00  4.011E+01  4.087E+00  5.756E-02  1.022E+03
   1   13    5     8     2    1.4252E+02 -2.0699E+00   1.4459E+02  0.000E+00  0.000E+00  0.000E+00  1.01840E+03  2.771E+00  4.018E+01  4.094E+00 -1.685E-01  1.016E+03
   1   13    4     8     3    1.4459E+02 -3.7756E+00   1.4836E+02  0.000E+00  0.000E+00  0.000E+00  1.01217E+03  2.792E+00  4.048E+01  4.125E+00 -3.051E-01  1.009E+03
   1   13    3     8     4    1.4836E+02 -4.0022E+00   1.5237E+02  0.000E+00  0.000E+00  0.000E+00  1.00594E+03  2.819E+00  4.088E+01  4.166E+00 -3.202E-01  1.003E+03
   1   13    2     8     5    1.5237E+02 -2.0417E+00   1.5441E+02  0.000E+00  0.000E+00  0.000E+00  9.99716E+02  2.841E+00  4.119E+01  4.197E+00 -1.621E-01  9.969E+02
   1   13    1     8     6    1.5441E+02 -4.9240E-01   1.5490E+02  0.000E+00  0.000E+00  0.000E+00  9.94724E+02  2.849E+00  4.131E+01  2.526E+00 -6.498E-02  9.919E+02



 UBDSV3 SAVING "           GW ET" ON UNIT 61 AT TIME STEP 15, STRESS PERIOD 11
 UBDSV3 SAVING "    UZF RECHARGE" ON UNIT 61 AT TIME STEP 15, STRESS PERIOD 11
 UBDSV3 SAVING " SURFACE LEAKAGE" ON UNIT 61 AT TIME STEP 15, STRESS PERIOD 11
 UBDSV3 SAVING "       HORT+DUNN" ON UNIT 61 AT TIME STEP 15, STRESS PERIOD 11
 UBDSV3 SAVING "  STORAGE CHANGE" ON UNIT 61 AT TIME STEP 15, STRESS PERIOD 11


UNSATURATED ZONE PACKAGE VOLUMETRIC BUDGET FOR  TIME STEP    15 STRESS PERIOD   11
  ------------------------------------------------------------------------------



     CUMULATIVE VOLUMES      L**3       RATES FOR THIS TIME STEP      L**3/T
     ------------------                 ------------------------

           IN:                                      IN:
           ---                                      ---
        INFILTRATION =     1.5145164E+9          INFILTRATION =        8.4750000

          OUT:                                     OUT:
          ----                                     ----
              UZF ET =     2.0434599E+9                UZF ET =       37.3037729
        UZF RECHARGE =     3.6183547E+8          UZF RECHARGE =        9.3040912

            IN - OUT =    -8.9077896E+8              IN - OUT =      -38.1328641

          STORAGE:                                 STORAGE:
          --------                                 --------
      STORAGE CHANGE =    -8.9057062E+8        STORAGE CHANGE =      -38.1327359

 PERCENT DISCREPANCY =          -0.00     PERCENT DISCREPANCY =          -0.00




 PERCENT DISCREPANCY IS DIFFERENCE BETWEEN IN-OUT MINUS CHANGE IN STORAGE
 DIVIDED BY THE AVERAGE OF IN AND OUT TIMES 100



1
              HEAD IN LAYER   1 AT END OF TIME STEP  15 IN STRESS PERIOD   11
  ---------------------------------------------------------------------------

           1       2       3       4       5       6       7       8       9      10
 ...................................................................................
   1  1092.39 1088.63 6999.00 6999.00 6999.00 6999.00 6999.00 6999.00 6999.00 6999.00
   2  1089.03 1085.70 1079.28 6999.00 6999.00 1073.77 1072.65 1070.93 6999.00 6999.00
   3  6999.00 1077.38 1074.51 1070.40 1070.97 1069.80 1068.23 1067.93 6999.00 6999.00
   4  1069.41 1068.68 1067.04 1063.64 1062.48 1061.18 1061.76 1064.48 1063.90 6999.00
   5  1065.17 1061.72 1059.30 1057.45 1057.16 1057.72 1057.54 1059.56 1062.99 1065.38
   6  1060.41 1055.85 1053.02 1051.01 1051.31 1053.23 1054.47 1056.76 1059.52 1063.68
   7  1056.56 1050.20 1047.32 1045.52 1046.12 1048.37 1050.73 1053.04 1054.32 6999.00
   8  6999.00 1042.80 1041.32 1040.05 1040.88 1043.34 1045.12 1047.46 1049.27 6999.00
   9  6999.00 1035.82 1035.28 1034.60 1035.75 1038.39 1039.28 1041.02 1043.85 6999.00
  10  6999.00 1028.70 1029.12 1029.48 1030.96 1033.27 1034.57 1036.44 1040.12 1044.65
  11  6999.00 1019.80 1021.58 1025.09 1027.10 1029.19 1030.66 1032.93 1036.38 6999.00
  12  1001.20 1008.87 1014.15 1019.06 1022.70 1025.92 1028.31 1031.03 1034.89 6999.00
  13   994.92 1000.20 1006.91 1013.08 1018.90 1024.47 1029.24 1034.28 1036.39 6999.00
  14  6999.00 1005.81 1011.40 1016.13 1021.16 1025.87 1030.14 1035.23 1039.49 6999.00
  15  6999.00 6999.00 1018.84 1021.84 1026.00 1029.35 6999.00 6999.00 6999.00 6999.00

 HEAD WILL BE SAVED ON UNIT   58 AT END OF TIME STEP    15 IN STRESS PERIOD     11



  -------------------------------------------------------------------------------------
  VOLUMETRIC BUDGET FOR ENTIRE MODEL AT END OF TIME STEP   15 IN STRESS PERIOD     11
  -------------------------------------------------------------------------------------

     CUMULATIVE VOLUMES      L**3       RATES FOR THIS TIME STEP      L**3/T
     ------------------                 ------------------------

           IN:                                      IN:
           ---                                      ---
             STORAGE =   125241743.2857               STORAGE =          16.3476
       CONSTANT HEAD =           0.0000         CONSTANT HEAD =           0.0000
               WELLS =           0.0000                 WELLS =           0.0000
     HEAD DEP BOUNDS =     6039919.7786       HEAD DEP BOUNDS =           0.2093
      STREAM LEAKAGE =  1247157032.9787        STREAM LEAKAGE =          43.2583
        UZF RECHARGE =   361835466.5319          UZF RECHARGE =           9.3041
               GW ET =           0.0000                 GW ET =           0.0000
     SURFACE LEAKAGE =           0.0000       SURFACE LEAKAGE =           0.0000

            TOTAL IN =  1740274162.5749              TOTAL IN =          69.1192

          OUT:                                     OUT:
          ----                                     ----
             STORAGE =   448099241.8768               STORAGE =           6.7824
       CONSTANT HEAD =           0.0000         CONSTANT HEAD =           0.0000
               WELLS =   394200000.0000                 WELLS =          30.0000
     HEAD DEP BOUNDS =     7616599.8217       HEAD DEP BOUNDS =           0.2629
      STREAM LEAKAGE =   387349593.7929        STREAM LEAKAGE =          13.1581
        UZF RECHARGE =           0.0000          UZF RECHARGE =           0.0000
               GW ET =   502889456.0017                 GW ET =          18.9131
     SURFACE LEAKAGE =           0.0000       SURFACE LEAKAGE =           0.0000

           TOTAL OUT =  1740154891.4931             TOTAL OUT =          69.1166

            IN - OUT =      119271.0818              IN - OUT =       2.6724E-03

 PERCENT DISCREPANCY =           0.01     PERCENT DISCREPANCY =           0.00


          TIME SUMMARY AT END OF TIME STEP    15 IN STRESS PERIOD     11
                    SECONDS     MINUTES      HOURS       DAYS        YEARS
                    -----------------------------------------------------------
   TIME STEP LENGTH 3.14103E+05  5235.0      87.251      3.6354     9.95332E-03
 STRESS PERIOD TIME 2.62800E+06  43800.      730.00      30.417     8.32763E-02
         TOTAL TIME 2.89080E+07 4.81800E+05  8030.0      334.58     0.91604    
 
1
                            STRESS PERIOD NO.     12, LENGTH =   2628000.    
                            -----------------------------------------------

                              NUMBER OF TIME STEPS =    15

                               MULTIPLIER FOR DELT =     1.100

                            INITIAL TIME STEP SIZE =   82713.09    

WEL PACKAGE WARNING: CURRENT STRESS PERIOD DOES NOT CONTAIN ANY WELLS


0 WELLS

 REUSING NON-PARAMETER GHB CELLS FROM LAST STRESS PERIOD

      2 GHB CELLS

 REUSING STREAM SEGMENT DATA FROM LAST STRESS PERIOD



            AREAL INFILTRATION RATE
 READING ON UNIT   19 WITH FORMAT: (10F4.0)            

            1           2           3           4           5           6           7           8           9          10
 ........................................................................................................................
   1   0.1000E-08  0.2000E-08   0.000       0.000       0.000       0.000       0.000       0.000       0.000       0.000    
   2   0.2000E-08  0.1000E-08  0.2000E-08   0.000       0.000      0.8000E-08  0.8000E-08  0.5000E-08   0.000       0.000    
   3    0.000      0.5000E-08  0.1000E-08  0.1000E-08  0.8000E-08  0.8000E-08  0.5000E-08  0.5000E-08   0.000       0.000    
   4   0.8000E-08  0.5000E-08  0.1000E-08  0.1000E-08  0.1000E-08  0.1000E-08  0.1000E-08  0.1000E-08  0.2000E-08   0.000    
   5   0.8000E-08  0.5000E-08  0.1000E-08  0.1000E-08  0.1000E-08  0.1000E-08  0.1000E-08  0.1000E-08  0.1000E-08  0.1000E-08
   6   0.8000E-08  0.5000E-08  0.5000E-08  0.2000E-08  0.2000E-08  0.1000E-08  0.1000E-08  0.1000E-08  0.1000E-08  0.5000E-08
   7   0.8000E-08  0.5000E-08  0.5000E-08  0.2000E-08  0.2000E-08  0.1000E-08  0.1000E-08  0.2000E-08  0.2000E-08   0.000    
   8    0.000      0.5000E-08  0.5000E-08  0.2000E-08  0.2000E-08  0.1000E-08  0.1000E-08  0.2000E-08  0.5000E-08   0.000    
   9    0.000      0.5000E-08  0.5000E-08  0.2000E-08  0.2000E-08  0.1000E-08  0.1000E-08  0.2000E-08  0.5000E-08   0.000    
  10    0.000      0.5000E-08  0.5000E-08  0.2000E-08  0.2000E-08  0.1000E-08  0.1000E-08  0.2000E-08  0.5000E-08  0.8000E-08
  11    0.000      0.1000E-08  0.1000E-08  0.1000E-08  0.1000E-08  0.1000E-08  0.1000E-08  0.2000E-08  0.5000E-08   0.000    
  12   0.1000E-08  0.1000E-08  0.1000E-08  0.1000E-08  0.1000E-08  0.1000E-08  0.1000E-08  0.1000E-08  0.2000E-08   0.000    
  13   0.1000E-08  0.1000E-08  0.2000E-08  0.2000E-08  0.2000E-08  0.2000E-08  0.2000E-08  0.1000E-08  0.1000E-08   0.000    
  14    0.000      0.2000E-08  0.5000E-08  0.5000E-08  0.5000E-08  0.5000E-08  0.5000E-08  0.2000E-08  0.1000E-08   0.000    
  15    0.000       0.000      0.8000E-08  0.8000E-08  0.8000E-08  0.8000E-08   0.000       0.000       0.000       0.000    

USING ET RATE FROM PREVIOUS STRESS PERIOD. CURRENT PERIOD IS:      12

 USING ET EXTINCTION DEPTH FROM PREVIOUS STRESS PERIOD. CURRENT PERIOD IS:      12

 USING EXTINCTION WATER CONTENT FROM PREVIOUS STRESS PERIOD. CURRENT PERIOD IS:      12
 
 SOLVING FOR HEAD 

     7 ITERATIONS FOR TIME STEP   1 IN STRESS PERIOD   12

 MAXIMUM HEAD CHANGE FOR EACH ITERATION:

    HEAD CHANGE   HEAD CHANGE   HEAD CHANGE   HEAD CHANGE   HEAD CHANGE
  LAYER,ROW,COL LAYER,ROW,COL LAYER,ROW,COL LAYER,ROW,COL LAYER,ROW,COL
 ----------------------------------------------------------------------
     0.2539E-01    0.6265E-02    0.3048E-02    0.1483E-02    0.7217E-03
  (  1, 10,  5) (  1, 10, 10) (  1, 10, 10) (  1, 10, 10) (  1, 10, 10)
     0.3511E-03    0.1708E-03
  (  1, 10, 10) (  1, 10, 10)


 NO OUTPUT CONTROL FOR STRESS PERIOD     12   TIME STEP     1
 
 SOLVING FOR HEAD 
     7 ITERATIONS FOR TIME STEP   2 IN STRESS PERIOD   12

 MAXIMUM HEAD CHANGE FOR EACH ITERATION:

    HEAD CHANGE   HEAD CHANGE   HEAD CHANGE   HEAD CHANGE   HEAD CHANGE
  LAYER,ROW,COL LAYER,ROW,COL LAYER,ROW,COL LAYER,ROW,COL LAYER,ROW,COL
 ----------------------------------------------------------------------
     0.2681E-01    0.6867E-02    0.3325E-02    0.1610E-02    0.7794E-03
  (  1, 10,  5) (  1, 10, 10) (  1, 10, 10) (  1, 10, 10) (  1, 10, 10)
     0.3773E-03    0.1827E-03
  (  1, 10, 10) (  1, 10, 10)


 NO OUTPUT CONTROL FOR STRESS PERIOD     12   TIME STEP     2
 
 SOLVING FOR HEAD 
     7 ITERATIONS FOR TIME STEP   3 IN STRESS PERIOD   12

 MAXIMUM HEAD CHANGE FOR EACH ITERATION:

    HEAD CHANGE   HEAD CHANGE   HEAD CHANGE   HEAD CHANGE   HEAD CHANGE
  LAYER,ROW,COL LAYER,ROW,COL LAYER,ROW,COL LAYER,ROW,COL LAYER,ROW,COL
 ----------------------------------------------------------------------
     0.2825E-01    0.7199E-02    0.3485E-02    0.1687E-02    0.8168E-03
  (  1, 10,  5) (  1, 10, 10) (  1, 10, 10) (  1, 10, 10) (  1, 10, 10)
     0.3954E-03    0.1914E-03
  (  1, 10, 10) (  1, 10, 10)


 NO OUTPUT CONTROL FOR STRESS PERIOD     12   TIME STEP     3
 
 SOLVING FOR HEAD 
     8 ITERATIONS FOR TIME STEP   4 IN STRESS PERIOD   12

 MAXIMUM HEAD CHANGE FOR EACH ITERATION:

    HEAD CHANGE   HEAD CHANGE   HEAD CHANGE   HEAD CHANGE   HEAD CHANGE
  LAYER,ROW,COL LAYER,ROW,COL LAYER,ROW,COL LAYER,ROW,COL LAYER,ROW,COL
 ----------------------------------------------------------------------
     0.2967E-01    0.7895E-02    0.3822E-02    0.1850E-02    0.8955E-03
  (  1, 10,  5) (  1, 10, 10) (  1, 10, 10) (  1, 10, 10) (  1, 10, 10)
     0.4335E-03    0.2098E-03    0.1016E-03
  (  1, 10, 10) (  1, 10, 10) (  1, 10, 10)


 NO OUTPUT CONTROL FOR STRESS PERIOD     12   TIME STEP     4
 
 SOLVING FOR HEAD 
     8 ITERATIONS FOR TIME STEP   5 IN STRESS PERIOD   12

 MAXIMUM HEAD CHANGE FOR EACH ITERATION:

    HEAD CHANGE   HEAD CHANGE   HEAD CHANGE   HEAD CHANGE   HEAD CHANGE
  LAYER,ROW,COL LAYER,ROW,COL LAYER,ROW,COL LAYER,ROW,COL LAYER,ROW,COL
 ----------------------------------------------------------------------
     0.3109E-01    0.8656E-02    0.4190E-02    0.2028E-02    0.9815E-03
  (  1, 10,  5) (  1, 10, 10) (  1, 10, 10) (  1, 10, 10) (  1, 10, 10)
     0.4750E-03    0.2299E-03    0.1113E-03
  (  1, 10, 10) (  1, 10, 10) (  1, 10, 10)


 OUTPUT CONTROL FOR STRESS PERIOD     12   TIME STEP     5
    PRINT BUDGET
    SAVE BUDGET

  HEAD DEP BOUNDS   PERIOD   12   STEP   5
 BOUNDARY      1   LAYER   1   ROW    13   COL     1   RATE   -0.262846       COND    0.380000E-01
 BOUNDARY      2   LAYER   1   ROW    14   COL     9   RATE    0.209321       COND    0.380000E-01



 STREAM LISTING     PERIOD     12   STEP        5

 LAYER ROW COL. STREAM  RCH.  FLOW INTO     FLOW TO   FLOW OUT OF   OVRLND.     DIRECT     STREAM       STREAM     STREAM     STREAM   STREAMBED  STREAMBED  STREAMBED
                SEG.NO.  NO.  STRM. RCH.    AQUIFER    STRM. RCH.    RUNOFF     PRECIP       ET          HEAD       DEPTH      WIDTH   CONDCTNC.   GRADIENT  ELEVATION

   1    1    1     1     1    2.5000E+01  1.0708E+00   2.3929E+01  0.000E+00  0.000E+00  0.000E+00  1.09422E+03  1.172E+00  1.296E+01  5.830E-01  6.123E-01  1.093E+03
   1    2    2     1     2    2.3929E+01  3.0719E+00   2.0857E+01  0.000E+00  0.000E+00  0.000E+00  1.08920E+03  1.140E+00  1.253E+01  8.769E-01  1.168E+00  1.088E+03
   1    3    3     1     3    2.0857E+01  2.9013E+00   1.7956E+01  0.000E+00  0.000E+00  0.000E+00  1.08351E+03  1.090E+00  1.182E+01  7.093E-01  1.363E+00  1.082E+03
   1    3    4     1     4    1.7956E+01  2.4642E+00   1.5492E+01  0.000E+00  0.000E+00  0.000E+00  1.07845E+03  1.044E+00  1.098E+01  6.093E-01  1.348E+00  1.077E+03
   1    4    5     2     1    5.4917E+00  2.6612E+00   2.8305E+00  0.000E+00  0.000E+00  0.000E+00  1.07235E+03  4.118E-01  1.200E+01  7.800E-01  1.137E+00  1.072E+03
   1    5    6     2     2    2.8305E+00  1.9521E+00   8.7836E-01  0.000E+00  0.000E+00  0.000E+00  1.06676E+03  2.536E-01  1.200E+01  6.000E-01  1.085E+00  1.067E+03
   1    6    6     2     3    8.7836E-01  8.7836E-01   0.0000E+00  0.000E+00  0.000E+00  0.000E+00  1.06183E+03  3.644E-02  1.200E+01  6.000E-01  1.012E+00  1.062E+03
   1    7    6     2     4    0.0000E+00  0.0000E+00   0.0000E+00  0.000E+00  0.000E+00  0.000E+00  1.05708E+03  0.000E+00  1.200E+01  6.000E-01  1.000E+00  1.057E+03
   1    8    6     2     5    0.0000E+00  0.0000E+00   0.0000E+00  0.000E+00  0.000E+00  0.000E+00  1.05236E+03  0.000E+00  1.200E+01  6.000E-01  1.000E+00  1.052E+03
   1    3    5     3     1    1.0000E+01  2.8252E+00   7.1748E+00  0.000E+00  0.000E+00  0.000E+00  1.07555E+03  1.909E+00  9.636E+00  7.227E-01  1.955E+00  1.074E+03
   1    3    6     3     2    7.1748E+00  1.9103E+00   5.2645E+00  0.000E+00  0.000E+00  0.000E+00  1.07264E+03  1.727E+00  8.909E+00  6.682E-01  1.429E+00  1.071E+03
   1    3    7     3     3    5.2645E+00  9.1674E-01   4.3478E+00  0.000E+00  0.000E+00  0.000E+00  1.06987E+03  1.555E+00  8.218E+00  5.547E-01  8.263E-01  1.068E+03
   1    4    8     3     4    4.3478E+00  1.5716E+00   2.7762E+00  0.000E+00  0.000E+00  0.000E+00  1.06682E+03  1.364E+00  7.455E+00  6.709E-01  1.171E+00  1.065E+03
   1    5    8     3     5    2.7762E+00  1.5789E+00   1.1972E+00  0.000E+00  0.000E+00  0.000E+00  1.06362E+03  1.164E+00  6.655E+00  4.991E-01  1.582E+00  1.062E+03
   1    6    8     3     6    1.1972E+00  5.5980E-01   6.3744E-01  0.000E+00  0.000E+00  0.000E+00  1.06158E+03  1.036E+00  6.145E+00  1.844E-01  1.518E+00  1.061E+03
   1    5   10     4     1    1.0000E+01  9.0525E-01   9.0947E+00  0.000E+00  0.000E+00  0.000E+00  1.07835E+03  6.210E-01  1.000E+01  2.500E-01  1.207E+00  1.078E+03
   1    5    9     4     2    9.0947E+00  1.7835E+00   7.3113E+00  0.000E+00  0.000E+00  0.000E+00  1.07148E+03  5.670E-01  1.000E+01  5.000E-01  1.189E+00  1.071E+03
   1    6    8     4     3    7.3113E+00  1.2257E+00   6.0855E+00  0.000E+00  0.000E+00  0.000E+00  1.06368E+03  5.021E-01  1.000E+01  3.500E-01  1.167E+00  1.063E+03
   1    6    8     5     1    6.7230E+00  8.2813E-01   5.8949E+00  0.000E+00  0.000E+00  0.000E+00  1.05857E+03  5.716E-01  1.148E+01  4.590E-01  6.014E-01  1.058E+03
   1    7    7     5     2    5.8949E+00  1.6549E+00   4.2400E+00  0.000E+00  0.000E+00  0.000E+00  1.05403E+03  5.294E-01  1.006E+01  5.031E-01  1.097E+00  1.054E+03
   1    8    7     5     3    4.2400E+00  1.0185E+00   3.2215E+00  0.000E+00  0.000E+00  0.000E+00  1.04973E+03  4.756E-01  8.373E+00  2.930E-01  1.159E+00  1.049E+03
   1    8    6     5     4    3.2215E+00  6.0634E-01   2.6151E+00  0.000E+00  0.000E+00  0.000E+00  1.04669E+03  4.364E-01  7.225E+00  1.806E-01  1.119E+00  1.046E+03
   1    9    6     6     1    2.6151E+00  1.9431E+00   6.7205E-01  0.000E+00  0.000E+00  0.000E+00  1.04297E+03  2.385E-01  1.200E+01  6.000E-01  1.079E+00  1.043E+03
   1   10    7     6     2    6.7205E-01  6.7205E-01   0.0000E+00  0.000E+00  0.000E+00  0.000E+00  1.03821E+03  3.138E-02  1.200E+01  6.000E-01  1.010E+00  1.038E+03
   1   11    7     6     3    0.0000E+00  0.0000E+00   0.0000E+00  0.000E+00  0.000E+00  0.000E+00  1.03364E+03  0.000E+00  1.200E+01  6.000E-01  9.906E-01  1.034E+03
   1   12    7     6     4    0.0000E+00  0.0000E+00   0.0000E+00  0.000E+00  0.000E+00  0.000E+00  1.02909E+03  0.000E+00  1.200E+01  6.000E-01  2.601E-01  1.029E+03
   1   13    7     6     5    0.0000E+00 -7.7622E-01   7.7622E-01  0.000E+00  0.000E+00  0.000E+00  1.02601E+03  1.003E-01  1.200E+01  2.400E-01 -1.078E+00  1.026E+03
   1   14    9     7     1    1.5000E+02  2.0958E+00   1.4790E+02  0.000E+00  0.000E+00  0.000E+00  1.03987E+03  2.286E+00  5.529E+01  5.592E+00  1.249E-01  1.038E+03
   1   13    8     7     2    1.4790E+02  3.0623E+00   1.4484E+02  0.000E+00  0.000E+00  0.000E+00  1.03477E+03  2.272E+00  5.522E+01  6.144E+00  1.661E-01  1.032E+03
   1   13    7     7     3    1.4484E+02  2.4150E+00   1.4243E+02  0.000E+00  0.000E+00  0.000E+00  1.02968E+03  2.257E+00  5.516E+01  5.578E+00  1.443E-01  1.027E+03
   1   13    6     8     1    1.4320E+02  7.0632E-01   1.4250E+02  0.000E+00  0.000E+00  0.000E+00  1.02464E+03  2.766E+00  4.010E+01  4.087E+00  5.761E-02  1.022E+03
   1   13    5     8     2    1.4250E+02 -2.0655E+00   1.4456E+02  0.000E+00  0.000E+00  0.000E+00  1.01840E+03  2.771E+00  4.017E+01  4.094E+00 -1.682E-01  1.016E+03
   1   13    4     8     3    1.4456E+02 -3.7698E+00   1.4833E+02  0.000E+00  0.000E+00  0.000E+00  1.01217E+03  2.792E+00  4.048E+01  4.125E+00 -3.046E-01  1.009E+03
   1   13    3     8     4    1.4833E+02 -3.9969E+00   1.5233E+02  0.000E+00  0.000E+00  0.000E+00  1.00594E+03  2.819E+00  4.088E+01  4.166E+00 -3.198E-01  1.003E+03
   1   13    2     8     5    1.5233E+02 -2.0346E+00   1.5436E+02  0.000E+00  0.000E+00  0.000E+00  9.99715E+02  2.840E+00  4.118E+01  4.197E+00 -1.616E-01  9.969E+02
   1   13    1     8     6    1.5436E+02 -4.8752E-01   1.5485E+02  0.000E+00  0.000E+00  0.000E+00  9.94724E+02  2.849E+00  4.131E+01  2.526E+00 -6.434E-02  9.919E+02



 UBDSV3 SAVING "           GW ET" ON UNIT 61 AT TIME STEP 5, STRESS PERIOD 12
 UBDSV3 SAVING "    UZF RECHARGE" ON UNIT 61 AT TIME STEP 5, STRESS PERIOD 12
 UBDSV3 SAVING " SURFACE LEAKAGE" ON UNIT 61 AT TIME STEP 5, STRESS PERIOD 12
 UBDSV3 SAVING "       HORT+DUNN" ON UNIT 61 AT TIME STEP 5, STRESS PERIOD 12
 UBDSV3 SAVING "  STORAGE CHANGE" ON UNIT 61 AT TIME STEP 5, STRESS PERIOD 12


UNSATURATED ZONE PACKAGE VOLUMETRIC BUDGET FOR  TIME STEP     5 STRESS PERIOD   12
  ------------------------------------------------------------------------------



     CUMULATIVE VOLUMES      L**3       RATES FOR THIS TIME STEP      L**3/T
     ------------------                 ------------------------

           IN:                                      IN:
           ---                                      ---
        INFILTRATION =     1.5187960E+9          INFILTRATION =        8.4750000

          OUT:                                     OUT:
          ----                                     ----
              UZF ET =     2.0617643E+9                UZF ET =       35.8903534
        UZF RECHARGE =     3.6639858E+8          UZF RECHARGE =        8.8362574

            IN - OUT =    -9.0936683E+8              IN - OUT =      -36.2516108

          STORAGE:                                 STORAGE:
          --------                                 --------
      STORAGE CHANGE =    -9.0915850E+8        STORAGE CHANGE =      -36.2516108

 PERCENT DISCREPANCY =          -0.00     PERCENT DISCREPANCY =          -0.00




 PERCENT DISCREPANCY IS DIFFERENCE BETWEEN IN-OUT MINUS CHANGE IN STORAGE
 DIVIDED BY THE AVERAGE OF IN AND OUT TIMES 100






  -------------------------------------------------------------------------------------
  VOLUMETRIC BUDGET FOR ENTIRE MODEL AT END OF TIME STEP    5 IN STRESS PERIOD     12
  -------------------------------------------------------------------------------------

     CUMULATIVE VOLUMES      L**3       RATES FOR THIS TIME STEP      L**3/T
     ------------------                 ------------------------

           IN:                                      IN:
           ---                                      ---
             STORAGE =   126175276.6393               STORAGE =           1.2176
       CONSTANT HEAD =           0.0000         CONSTANT HEAD =           0.0000
               WELLS =           0.0000                 WELLS =           0.0000
     HEAD DEP BOUNDS =     6145608.0969       HEAD DEP BOUNDS =           0.2093
      STREAM LEAKAGE =  1269007472.0002        STREAM LEAKAGE =          43.2795
        UZF RECHARGE =   366398581.7105          UZF RECHARGE =           8.8363
               GW ET =           0.0000                 GW ET =           0.0000
     SURFACE LEAKAGE =           0.0000       SURFACE LEAKAGE =           0.0000

            TOTAL IN =  1767726938.4470              TOTAL IN =          53.5426

          OUT:                                     OUT:
          ----                                     ----
             STORAGE =   459152775.8852               STORAGE =          21.0104
       CONSTANT HEAD =           0.0000         CONSTANT HEAD =           0.0000
               WELLS =   394200000.0000                 WELLS =           0.0000
     HEAD DEP BOUNDS =     7749346.6824       HEAD DEP BOUNDS =           0.2628
      STREAM LEAKAGE =   393985845.8734        STREAM LEAKAGE =          13.1306
        UZF RECHARGE =           0.0000          UZF RECHARGE =           0.0000
               GW ET =   512515233.2259                 GW ET =          19.1339
     SURFACE LEAKAGE =           0.0000       SURFACE LEAKAGE =           0.0000

           TOTAL OUT =  1767603201.6668             TOTAL OUT =          53.5378

            IN - OUT =      123736.7801              IN - OUT =       4.8929E-03

 PERCENT DISCREPANCY =           0.01     PERCENT DISCREPANCY =           0.01


          TIME SUMMARY AT END OF TIME STEP     5 IN STRESS PERIOD     12
                    SECONDS     MINUTES      HOURS       DAYS        YEARS
                    -----------------------------------------------------------
   TIME STEP LENGTH 1.21100E+05  2018.3      33.639      1.4016     3.83743E-03
 STRESS PERIOD TIME 5.04972E+05  8416.2      140.27      5.8446     1.60016E-02
         TOTAL TIME 2.94130E+07 4.90216E+05  8170.3      340.43     0.93204    
 
 
 SOLVING FOR HEAD 
     8 ITERATIONS FOR TIME STEP   6 IN STRESS PERIOD   12

 MAXIMUM HEAD CHANGE FOR EACH ITERATION:

    HEAD CHANGE   HEAD CHANGE   HEAD CHANGE   HEAD CHANGE   HEAD CHANGE
  LAYER,ROW,COL LAYER,ROW,COL LAYER,ROW,COL LAYER,ROW,COL LAYER,ROW,COL
 ----------------------------------------------------------------------
     0.3249E-01    0.9128E-02    0.4396E-02    0.2117E-02    0.1020E-02
  (  1, 10,  5) (  1, 10, 10) (  1, 10, 10) (  1, 10, 10) (  1, 10, 10)
     0.4910E-03    0.2364E-03    0.1139E-03
  (  1, 10, 10) (  1, 10, 10) (  1, 10, 10)


 NO OUTPUT CONTROL FOR STRESS PERIOD     12   TIME STEP     6
 
 SOLVING FOR HEAD 
     8 ITERATIONS FOR TIME STEP   7 IN STRESS PERIOD   12

 MAXIMUM HEAD CHANGE FOR EACH ITERATION:

    HEAD CHANGE   HEAD CHANGE   HEAD CHANGE   HEAD CHANGE   HEAD CHANGE
  LAYER,ROW,COL LAYER,ROW,COL LAYER,ROW,COL LAYER,ROW,COL LAYER,ROW,COL
 ----------------------------------------------------------------------
     0.3400E-01    0.1142E-01    0.5548E-02    0.2695E-02    0.1309E-02
  (  1,  6,  4) (  1, 15,  4) (  1, 15,  4) (  1, 15,  4) (  1, 15,  4)
     0.6356E-03    0.3087E-03    0.1499E-03
  (  1, 15,  4) (  1, 15,  4) (  1, 15,  4)


 NO OUTPUT CONTROL FOR STRESS PERIOD     12   TIME STEP     7
 
 SOLVING FOR HEAD 
     8 ITERATIONS FOR TIME STEP   8 IN STRESS PERIOD   12

 MAXIMUM HEAD CHANGE FOR EACH ITERATION:

    HEAD CHANGE   HEAD CHANGE   HEAD CHANGE   HEAD CHANGE   HEAD CHANGE
  LAYER,ROW,COL LAYER,ROW,COL LAYER,ROW,COL LAYER,ROW,COL LAYER,ROW,COL
 ----------------------------------------------------------------------
     0.3609E-01    0.1247E-01    0.6053E-02    0.2939E-02    0.1427E-02
  (  1,  6,  4) (  1, 15,  4) (  1, 15,  4) (  1, 15,  4) (  1, 15,  4)
     0.6928E-03    0.3364E-03    0.1633E-03
  (  1, 15,  4) (  1, 15,  4) (  1, 15,  4)


 NO OUTPUT CONTROL FOR STRESS PERIOD     12   TIME STEP     8
 
 SOLVING FOR HEAD 
     8 ITERATIONS FOR TIME STEP   9 IN STRESS PERIOD   12

 MAXIMUM HEAD CHANGE FOR EACH ITERATION:

    HEAD CHANGE   HEAD CHANGE   HEAD CHANGE   HEAD CHANGE   HEAD CHANGE
  LAYER,ROW,COL LAYER,ROW,COL LAYER,ROW,COL LAYER,ROW,COL LAYER,ROW,COL
 ----------------------------------------------------------------------
     0.3867E-01    0.1359E-01    0.6599E-02    0.3203E-02    0.1555E-02
  (  1,  7,  4) (  1, 15,  4) (  1, 15,  4) (  1, 15,  4) (  1, 15,  4)
     0.7545E-03    0.3662E-03    0.1777E-03
  (  1, 15,  4) (  1, 15,  4) (  1, 15,  4)


 NO OUTPUT CONTROL FOR STRESS PERIOD     12   TIME STEP     9
 
 SOLVING FOR HEAD 
     8 ITERATIONS FOR TIME STEP  10 IN STRESS PERIOD   12

 MAXIMUM HEAD CHANGE FOR EACH ITERATION:

    HEAD CHANGE   HEAD CHANGE   HEAD CHANGE   HEAD CHANGE   HEAD CHANGE
  LAYER,ROW,COL LAYER,ROW,COL LAYER,ROW,COL LAYER,ROW,COL LAYER,ROW,COL
 ----------------------------------------------------------------------
     0.4199E-01    0.1431E-01    0.6911E-02    0.3337E-02    0.1612E-02
  (  1,  7,  4) (  1, 15,  4) (  1, 15,  4) (  1, 15,  4) (  1, 15,  4)
     0.7782E-03    0.3758E-03    0.1814E-03
  (  1, 15,  4) (  1, 15,  4) (  1, 15,  4)


 OUTPUT CONTROL FOR STRESS PERIOD     12   TIME STEP    10
    PRINT BUDGET
    SAVE BUDGET

  HEAD DEP BOUNDS   PERIOD   12   STEP  10
 BOUNDARY      1   LAYER   1   ROW    13   COL     1   RATE   -0.262738       COND    0.380000E-01
 BOUNDARY      2   LAYER   1   ROW    14   COL     9   RATE    0.209442       COND    0.380000E-01



 STREAM LISTING     PERIOD     12   STEP       10

 LAYER ROW COL. STREAM  RCH.  FLOW INTO     FLOW TO   FLOW OUT OF   OVRLND.     DIRECT     STREAM       STREAM     STREAM     STREAM   STREAMBED  STREAMBED  STREAMBED
                SEG.NO.  NO.  STRM. RCH.    AQUIFER    STRM. RCH.    RUNOFF     PRECIP       ET          HEAD       DEPTH      WIDTH   CONDCTNC.   GRADIENT  ELEVATION

   1    1    1     1     1    2.5000E+01  1.0730E+00   2.3927E+01  0.000E+00  0.000E+00  0.000E+00  1.09422E+03  1.172E+00  1.296E+01  5.830E-01  6.135E-01  1.093E+03
   1    2    2     1     2    2.3927E+01  3.0747E+00   2.0852E+01  0.000E+00  0.000E+00  0.000E+00  1.08920E+03  1.140E+00  1.253E+01  8.768E-01  1.169E+00  1.088E+03
   1    3    3     1     3    2.0852E+01  2.9009E+00   1.7951E+01  0.000E+00  0.000E+00  0.000E+00  1.08351E+03  1.090E+00  1.182E+01  7.092E-01  1.363E+00  1.082E+03
   1    3    4     1     4    1.7951E+01  2.4639E+00   1.5487E+01  0.000E+00  0.000E+00  0.000E+00  1.07845E+03  1.044E+00  1.098E+01  6.092E-01  1.348E+00  1.077E+03
   1    4    5     2     1    5.4875E+00  2.6610E+00   2.8265E+00  0.000E+00  0.000E+00  0.000E+00  1.07235E+03  4.115E-01  1.200E+01  7.800E-01  1.137E+00  1.072E+03
   1    5    6     2     2    2.8265E+00  1.9519E+00   8.7452E-01  0.000E+00  0.000E+00  0.000E+00  1.06676E+03  2.532E-01  1.200E+01  6.000E-01  1.084E+00  1.067E+03
   1    6    6     2     3    8.7452E-01  8.7452E-01   0.0000E+00  0.000E+00  0.000E+00  0.000E+00  1.06183E+03  3.634E-02  1.200E+01  6.000E-01  1.012E+00  1.062E+03
   1    7    6     2     4    0.0000E+00  0.0000E+00   0.0000E+00  0.000E+00  0.000E+00  0.000E+00  1.05708E+03  0.000E+00  1.200E+01  6.000E-01  1.000E+00  1.057E+03
   1    8    6     2     5    0.0000E+00  0.0000E+00   0.0000E+00  0.000E+00  0.000E+00  0.000E+00  1.05236E+03  0.000E+00  1.200E+01  6.000E-01  1.000E+00  1.052E+03
   1    3    5     3     1    1.0000E+01  2.8252E+00   7.1748E+00  0.000E+00  0.000E+00  0.000E+00  1.07555E+03  1.909E+00  9.636E+00  7.227E-01  1.955E+00  1.074E+03
   1    3    6     3     2    7.1748E+00  1.9262E+00   5.2486E+00  0.000E+00  0.000E+00  0.000E+00  1.07264E+03  1.727E+00  8.909E+00  6.682E-01  1.441E+00  1.071E+03
   1    3    7     3     3    5.2486E+00  9.2503E-01   4.3235E+00  0.000E+00  0.000E+00  0.000E+00  1.06987E+03  1.555E+00  8.218E+00  5.547E-01  8.338E-01  1.068E+03
   1    4    8     3     4    4.3235E+00  1.5749E+00   2.7487E+00  0.000E+00  0.000E+00  0.000E+00  1.06682E+03  1.364E+00  7.455E+00  6.709E-01  1.174E+00  1.065E+03
   1    5    8     3     5    2.7487E+00  1.5789E+00   1.1697E+00  0.000E+00  0.000E+00  0.000E+00  1.06362E+03  1.164E+00  6.655E+00  4.991E-01  1.582E+00  1.062E+03
   1    6    8     3     6    1.1697E+00  5.5980E-01   6.0993E-01  0.000E+00  0.000E+00  0.000E+00  1.06158E+03  1.036E+00  6.145E+00  1.844E-01  1.518E+00  1.061E+03
   1    5   10     4     1    1.0000E+01  9.0525E-01   9.0947E+00  0.000E+00  0.000E+00  0.000E+00  1.07835E+03  6.210E-01  1.000E+01  2.500E-01  1.207E+00  1.078E+03
   1    5    9     4     2    9.0947E+00  1.7835E+00   7.3113E+00  0.000E+00  0.000E+00  0.000E+00  1.07148E+03  5.670E-01  1.000E+01  5.000E-01  1.189E+00  1.071E+03
   1    6    8     4     3    7.3113E+00  1.2257E+00   6.0855E+00  0.000E+00  0.000E+00  0.000E+00  1.06368E+03  5.021E-01  1.000E+01  3.500E-01  1.167E+00  1.063E+03
   1    6    8     5     1    6.6955E+00  8.2142E-01   5.8741E+00  0.000E+00  0.000E+00  0.000E+00  1.05857E+03  5.709E-01  1.145E+01  4.579E-01  5.979E-01  1.058E+03
   1    7    7     5     2    5.8741E+00  1.6447E+00   4.2294E+00  0.000E+00  0.000E+00  0.000E+00  1.05403E+03  5.288E-01  1.004E+01  5.021E-01  1.092E+00  1.054E+03
   1    8    7     5     3    4.2294E+00  1.0168E+00   3.2126E+00  0.000E+00  0.000E+00  0.000E+00  1.04973E+03  4.752E-01  8.360E+00  2.926E-01  1.158E+00  1.049E+03
   1    8    6     5     4    3.2126E+00  6.0329E-01   2.6093E+00  0.000E+00  0.000E+00  0.000E+00  1.04669E+03  4.360E-01  7.215E+00  1.804E-01  1.115E+00  1.046E+03
   1    9    6     6     1    2.6093E+00  1.9428E+00   6.6654E-01  0.000E+00  0.000E+00  0.000E+00  1.04297E+03  2.380E-01  1.200E+01  6.000E-01  1.079E+00  1.043E+03
   1   10    7     6     2    6.6654E-01  6.6654E-01   0.0000E+00  0.000E+00  0.000E+00  0.000E+00  1.03821E+03  3.122E-02  1.200E+01  6.000E-01  1.010E+00  1.038E+03
   1   11    7     6     3    0.0000E+00  0.0000E+00   0.0000E+00  0.000E+00  0.000E+00  0.000E+00  1.03364E+03  0.000E+00  1.200E+01  6.000E-01  9.874E-01  1.034E+03
   1   12    7     6     4    0.0000E+00  0.0000E+00   0.0000E+00  0.000E+00  0.000E+00  0.000E+00  1.02909E+03  0.000E+00  1.200E+01  6.000E-01  2.598E-01  1.029E+03
   1   13    7     6     5    0.0000E+00 -7.7599E-01   7.7599E-01  0.000E+00  0.000E+00  0.000E+00  1.02601E+03  1.003E-01  1.200E+01  2.400E-01 -1.078E+00  1.026E+03
   1   14    9     7     1    1.5000E+02  2.1134E+00   1.4789E+02  0.000E+00  0.000E+00  0.000E+00  1.03987E+03  2.286E+00  5.529E+01  5.592E+00  1.260E-01  1.038E+03
   1   13    8     7     2    1.4789E+02  3.0812E+00   1.4481E+02  0.000E+00  0.000E+00  0.000E+00  1.03477E+03  2.272E+00  5.522E+01  6.144E+00  1.672E-01  1.032E+03
   1   13    7     7     3    1.4481E+02  2.4194E+00   1.4239E+02  0.000E+00  0.000E+00  0.000E+00  1.02968E+03  2.257E+00  5.516E+01  5.578E+00  1.446E-01  1.027E+03
   1   13    6     8     1    1.4316E+02  7.0765E-01   1.4245E+02  0.000E+00  0.000E+00  0.000E+00  1.02464E+03  2.765E+00  4.010E+01  4.086E+00  5.773E-02  1.022E+03
   1   13    5     8     2    1.4245E+02 -2.0580E+00   1.4451E+02  0.000E+00  0.000E+00  0.000E+00  1.01840E+03  2.770E+00  4.017E+01  4.093E+00 -1.676E-01  1.016E+03
   1   13    4     8     3    1.4451E+02 -3.7645E+00   1.4828E+02  0.000E+00  0.000E+00  0.000E+00  1.01217E+03  2.791E+00  4.047E+01  4.124E+00 -3.042E-01  1.009E+03
   1   13    3     8     4    1.4828E+02 -3.9886E+00   1.5227E+02  0.000E+00  0.000E+00  0.000E+00  1.00594E+03  2.819E+00  4.087E+01  4.165E+00 -3.192E-01  1.003E+03
   1   13    2     8     5    1.5227E+02 -2.0195E+00   1.5429E+02  0.000E+00  0.000E+00  0.000E+00  9.99715E+02  2.840E+00  4.118E+01  4.196E+00 -1.604E-01  9.969E+02
   1   13    1     8     6    1.5429E+02 -4.8166E-01   1.5477E+02  0.000E+00  0.000E+00  0.000E+00  9.94723E+02  2.848E+00  4.130E+01  2.525E+00 -6.358E-02  9.919E+02



 UBDSV3 SAVING "           GW ET" ON UNIT 61 AT TIME STEP 10, STRESS PERIOD 12
 UBDSV3 SAVING "    UZF RECHARGE" ON UNIT 61 AT TIME STEP 10, STRESS PERIOD 12
 UBDSV3 SAVING " SURFACE LEAKAGE" ON UNIT 61 AT TIME STEP 10, STRESS PERIOD 12
 UBDSV3 SAVING "       HORT+DUNN" ON UNIT 61 AT TIME STEP 10, STRESS PERIOD 12
 UBDSV3 SAVING "  STORAGE CHANGE" ON UNIT 61 AT TIME STEP 10, STRESS PERIOD 12


UNSATURATED ZONE PACKAGE VOLUMETRIC BUDGET FOR  TIME STEP    10 STRESS PERIOD   12
  ------------------------------------------------------------------------------



     CUMULATIVE VOLUMES      L**3       RATES FOR THIS TIME STEP      L**3/T
     ------------------                 ------------------------

           IN:                                      IN:
           ---                                      ---
        INFILTRATION =     1.5256884E+9          INFILTRATION =        8.4750000

          OUT:                                     OUT:
          ----                                     ----
              UZF ET =     2.0902508E+9                UZF ET =       34.1064486
        UZF RECHARGE =     3.7399776E+8          UZF RECHARGE =        9.3047891

            IN - OUT =    -9.3856013E+8              IN - OUT =      -34.9362377

          STORAGE:                                 STORAGE:
          --------                                 --------
      STORAGE CHANGE =    -9.3835144E+8        STORAGE CHANGE =      -34.9344442

 PERCENT DISCREPANCY =          -0.00     PERCENT DISCREPANCY =          -0.00




 PERCENT DISCREPANCY IS DIFFERENCE BETWEEN IN-OUT MINUS CHANGE IN STORAGE
 DIVIDED BY THE AVERAGE OF IN AND OUT TIMES 100






  -------------------------------------------------------------------------------------
  VOLUMETRIC BUDGET FOR ENTIRE MODEL AT END OF TIME STEP   10 IN STRESS PERIOD     12
  -------------------------------------------------------------------------------------

     CUMULATIVE VOLUMES      L**3       RATES FOR THIS TIME STEP      L**3/T
     ------------------                 ------------------------

           IN:                                      IN:
           ---                                      ---
             STORAGE =   126945643.8427               STORAGE =           0.9491
       CONSTANT HEAD =           0.0000         CONSTANT HEAD =           0.0000
               WELLS =           0.0000                 WELLS =           0.0000
     HEAD DEP BOUNDS =     6315898.5378       HEAD DEP BOUNDS =           0.2094
      STREAM LEAKAGE =  1304225058.1208        STREAM LEAKAGE =          43.3216
        UZF RECHARGE =   373997761.9602          UZF RECHARGE =           9.3048
               GW ET =           0.0000                 GW ET =           0.0000
     SURFACE LEAKAGE =           0.0000       SURFACE LEAKAGE =           0.0000

            TOTAL IN =  1811484362.4615              TOTAL IN =          53.7849

          OUT:                                     OUT:
          ----                                     ----
             STORAGE =   476339424.4818               STORAGE =          21.0136
       CONSTANT HEAD =           0.0000         CONSTANT HEAD =           0.0000
               WELLS =   394200000.0000                 WELLS =           0.0000
     HEAD DEP BOUNDS =     7963053.7952       HEAD DEP BOUNDS =           0.2627
      STREAM LEAKAGE =   404643451.8218        STREAM LEAKAGE =          13.0882
        UZF RECHARGE =           0.0000          UZF RECHARGE =           0.0000
               GW ET =   528209953.5765                 GW ET =          19.4146
     SURFACE LEAKAGE =           0.0000       SURFACE LEAKAGE =           0.0000

           TOTAL OUT =  1811355883.6753             TOTAL OUT =          53.7792

            IN - OUT =      128478.7862              IN - OUT =       5.7317E-03

 PERCENT DISCREPANCY =           0.01     PERCENT DISCREPANCY =           0.01


          TIME SUMMARY AT END OF TIME STEP    10 IN STRESS PERIOD     12
                    SECONDS     MINUTES      HOURS       DAYS        YEARS
                    -----------------------------------------------------------
   TIME STEP LENGTH 1.95033E+05  3250.6      54.176      2.2573     6.18023E-03
 STRESS PERIOD TIME 1.31823E+06  21971.      366.18      15.257     4.17723E-02
         TOTAL TIME 3.02262E+07 5.03771E+05  8396.2      349.84     0.95781    
 
 
 SOLVING FOR HEAD 
     8 ITERATIONS FOR TIME STEP  11 IN STRESS PERIOD   12

 MAXIMUM HEAD CHANGE FOR EACH ITERATION:

    HEAD CHANGE   HEAD CHANGE   HEAD CHANGE   HEAD CHANGE   HEAD CHANGE
  LAYER,ROW,COL LAYER,ROW,COL LAYER,ROW,COL LAYER,ROW,COL LAYER,ROW,COL
 ----------------------------------------------------------------------
     0.4549E-01    0.1540E-01    0.7436E-02    0.3589E-02    0.1733E-02
  (  1,  7,  4) (  1, 15,  4) (  1, 15,  4) (  1, 15,  4) (  1, 15,  4)
     0.8364E-03    0.4037E-03    0.1949E-03
  (  1, 15,  4) (  1, 15,  4) (  1, 15,  4)


 NO OUTPUT CONTROL FOR STRESS PERIOD     12   TIME STEP    11
 
 SOLVING FOR HEAD 
     8 ITERATIONS FOR TIME STEP  12 IN STRESS PERIOD   12

 MAXIMUM HEAD CHANGE FOR EACH ITERATION:

    HEAD CHANGE   HEAD CHANGE   HEAD CHANGE   HEAD CHANGE   HEAD CHANGE
  LAYER,ROW,COL LAYER,ROW,COL LAYER,ROW,COL LAYER,ROW,COL LAYER,ROW,COL
 ----------------------------------------------------------------------
     0.4915E-01    0.1604E-01    0.7700E-02    0.3697E-02    0.1775E-02
  (  1,  7,  4) (  1, 15,  4) (  1, 15,  4) (  1, 15,  4) (  1, 15,  4)
     0.8525E-03    0.4093E-03    0.1965E-03
  (  1, 15,  4) (  1, 15,  4) (  1, 15,  4)


 NO OUTPUT CONTROL FOR STRESS PERIOD     12   TIME STEP    12
 
 SOLVING FOR HEAD 
     9 ITERATIONS FOR TIME STEP  13 IN STRESS PERIOD   12

 MAXIMUM HEAD CHANGE FOR EACH ITERATION:

    HEAD CHANGE   HEAD CHANGE   HEAD CHANGE   HEAD CHANGE   HEAD CHANGE
  LAYER,ROW,COL LAYER,ROW,COL LAYER,ROW,COL LAYER,ROW,COL LAYER,ROW,COL
 ----------------------------------------------------------------------
     0.5295E-01    0.1721E-01    0.8259E-02    0.3963E-02    0.1902E-02
  (  1,  7,  4) (  1, 15,  4) (  1, 15,  4) (  1, 15,  4) (  1, 15,  4)
     0.9125E-03    0.4378E-03    0.2101E-03    0.1008E-03
  (  1, 15,  4) (  1, 15,  4) (  1, 15,  4) (  1, 15,  4)


 NO OUTPUT CONTROL FOR STRESS PERIOD     12   TIME STEP    13
 
 SOLVING FOR HEAD 
     9 ITERATIONS FOR TIME STEP  14 IN STRESS PERIOD   12

 MAXIMUM HEAD CHANGE FOR EACH ITERATION:

    HEAD CHANGE   HEAD CHANGE   HEAD CHANGE   HEAD CHANGE   HEAD CHANGE
  LAYER,ROW,COL LAYER,ROW,COL LAYER,ROW,COL LAYER,ROW,COL LAYER,ROW,COL
 ----------------------------------------------------------------------
     0.5697E-01    0.1785E-01    0.8517E-02    0.4064E-02    0.1939E-02
  (  1,  7,  4) (  1, 15,  4) (  1, 15,  4) (  1, 15,  4) (  1, 15,  4)
     0.9254E-03    0.4415E-03    0.2106E-03    0.1005E-03
  (  1, 15,  4) (  1, 15,  4) (  1, 15,  4) (  1, 15,  4)


 NO OUTPUT CONTROL FOR STRESS PERIOD     12   TIME STEP    14
 
 SOLVING FOR HEAD 
     9 ITERATIONS FOR TIME STEP  15 IN STRESS PERIOD   12

 MAXIMUM HEAD CHANGE FOR EACH ITERATION:

    HEAD CHANGE   HEAD CHANGE   HEAD CHANGE   HEAD CHANGE   HEAD CHANGE
  LAYER,ROW,COL LAYER,ROW,COL LAYER,ROW,COL LAYER,ROW,COL LAYER,ROW,COL
 ----------------------------------------------------------------------
     0.6182E-01    0.2327E-01    0.1124E-01    0.5426E-02    0.2620E-02
  (  1,  8,  4) (  1, 15,  3) (  1, 15,  3) (  1, 15,  3) (  1, 15,  3)
     0.1265E-02    0.6108E-03    0.2949E-03    0.1424E-03
  (  1, 15,  3) (  1, 15,  3) (  1, 15,  3) (  1, 15,  3)


 OUTPUT CONTROL FOR STRESS PERIOD     12   TIME STEP    15
    PRINT BUDGET
    PRINT HEAD FOR ALL LAYERS
    SAVE HEAD FOR ALL LAYERS
    SAVE BUDGET

  HEAD DEP BOUNDS   PERIOD   12   STEP  15
 BOUNDARY      1   LAYER   1   ROW    13   COL     1   RATE   -0.262623       COND    0.380000E-01
 BOUNDARY      2   LAYER   1   ROW    14   COL     9   RATE    0.209608       COND    0.380000E-01



 STREAM LISTING     PERIOD     12   STEP       15

 LAYER ROW COL. STREAM  RCH.  FLOW INTO     FLOW TO   FLOW OUT OF   OVRLND.     DIRECT     STREAM       STREAM     STREAM     STREAM   STREAMBED  STREAMBED  STREAMBED
                SEG.NO.  NO.  STRM. RCH.    AQUIFER    STRM. RCH.    RUNOFF     PRECIP       ET          HEAD       DEPTH      WIDTH   CONDCTNC.   GRADIENT  ELEVATION

   1    1    1     1     1    2.5000E+01  1.0768E+00   2.3923E+01  0.000E+00  0.000E+00  0.000E+00  1.09422E+03  1.172E+00  1.295E+01  5.830E-01  6.157E-01  1.093E+03
   1    2    2     1     2    2.3923E+01  3.0797E+00   2.0843E+01  0.000E+00  0.000E+00  0.000E+00  1.08920E+03  1.140E+00  1.252E+01  8.767E-01  1.171E+00  1.088E+03
   1    3    3     1     3    2.0843E+01  2.9002E+00   1.7943E+01  0.000E+00  0.000E+00  0.000E+00  1.08351E+03  1.090E+00  1.182E+01  7.091E-01  1.363E+00  1.082E+03
   1    3    4     1     4    1.7943E+01  2.4632E+00   1.5480E+01  0.000E+00  0.000E+00  0.000E+00  1.07845E+03  1.044E+00  1.097E+01  6.091E-01  1.348E+00  1.077E+03
   1    4    5     2     1    5.4801E+00  2.6607E+00   2.8194E+00  0.000E+00  0.000E+00  0.000E+00  1.07235E+03  4.111E-01  1.200E+01  7.800E-01  1.137E+00  1.072E+03
   1    5    6     2     2    2.8194E+00  1.9516E+00   8.6780E-01  0.000E+00  0.000E+00  0.000E+00  1.06676E+03  2.527E-01  1.200E+01  6.000E-01  1.084E+00  1.067E+03
   1    6    6     2     3    8.6780E-01  8.6780E-01   0.0000E+00  0.000E+00  0.000E+00  0.000E+00  1.06183E+03  3.617E-02  1.200E+01  6.000E-01  1.012E+00  1.062E+03
   1    7    6     2     4    0.0000E+00  0.0000E+00   0.0000E+00  0.000E+00  0.000E+00  0.000E+00  1.05708E+03  0.000E+00  1.200E+01  6.000E-01  1.000E+00  1.057E+03
   1    8    6     2     5    0.0000E+00  0.0000E+00   0.0000E+00  0.000E+00  0.000E+00  0.000E+00  1.05236E+03  0.000E+00  1.200E+01  6.000E-01  1.000E+00  1.052E+03
   1    3    5     3     1    1.0000E+01  2.8252E+00   7.1748E+00  0.000E+00  0.000E+00  0.000E+00  1.07555E+03  1.909E+00  9.636E+00  7.227E-01  1.955E+00  1.074E+03
   1    3    6     3     2    7.1748E+00  1.9446E+00   5.2302E+00  0.000E+00  0.000E+00  0.000E+00  1.07264E+03  1.727E+00  8.909E+00  6.682E-01  1.455E+00  1.071E+03
   1    3    7     3     3    5.2302E+00  9.3564E-01   4.2945E+00  0.000E+00  0.000E+00  0.000E+00  1.06987E+03  1.555E+00  8.218E+00  5.547E-01  8.433E-01  1.068E+03
   1    4    8     3     4    4.2945E+00  1.5801E+00   2.7144E+00  0.000E+00  0.000E+00  0.000E+00  1.06682E+03  1.364E+00  7.455E+00  6.709E-01  1.178E+00  1.065E+03
   1    5    8     3     5    2.7144E+00  1.5789E+00   1.1355E+00  0.000E+00  0.000E+00  0.000E+00  1.06362E+03  1.164E+00  6.655E+00  4.991E-01  1.582E+00  1.062E+03
   1    6    8     3     6    1.1355E+00  5.5980E-01   5.7571E-01  0.000E+00  0.000E+00  0.000E+00  1.06158E+03  1.036E+00  6.145E+00  1.844E-01  1.518E+00  1.061E+03
   1    5   10     4     1    1.0000E+01  9.0525E-01   9.0947E+00  0.000E+00  0.000E+00  0.000E+00  1.07835E+03  6.210E-01  1.000E+01  2.500E-01  1.207E+00  1.078E+03
   1    5    9     4     2    9.0947E+00  1.7835E+00   7.3113E+00  0.000E+00  0.000E+00  0.000E+00  1.07148E+03  5.670E-01  1.000E+01  5.000E-01  1.189E+00  1.071E+03
   1    6    8     4     3    7.3113E+00  1.2257E+00   6.0855E+00  0.000E+00  0.000E+00  0.000E+00  1.06368E+03  5.021E-01  1.000E+01  3.500E-01  1.167E+00  1.063E+03
   1    6    8     5     1    6.6613E+00  8.1263E-01   5.8486E+00  0.000E+00  0.000E+00  0.000E+00  1.05857E+03  5.699E-01  1.142E+01  4.566E-01  5.932E-01  1.058E+03
   1    7    7     5     2    5.8486E+00  1.6277E+00   4.2209E+00  0.000E+00  0.000E+00  0.000E+00  1.05403E+03  5.282E-01  1.002E+01  5.011E-01  1.083E+00  1.054E+03
   1    8    7     5     3    4.2209E+00  1.0154E+00   3.2055E+00  0.000E+00  0.000E+00  0.000E+00  1.04972E+03  4.748E-01  8.349E+00  2.922E-01  1.158E+00  1.049E+03
   1    8    6     5     4    3.2055E+00  5.8966E-01   2.6159E+00  0.000E+00  0.000E+00  0.000E+00  1.04669E+03  4.360E-01  7.214E+00  1.804E-01  1.090E+00  1.046E+03
   1    9    6     6     1    2.6159E+00  1.9431E+00   6.7274E-01  0.000E+00  0.000E+00  0.000E+00  1.04297E+03  2.385E-01  1.200E+01  6.000E-01  1.080E+00  1.043E+03
   1   10    7     6     2    6.7274E-01  6.7274E-01   0.0000E+00  0.000E+00  0.000E+00  0.000E+00  1.03821E+03  3.140E-02  1.200E+01  6.000E-01  1.010E+00  1.038E+03
   1   11    7     6     3    0.0000E+00  0.0000E+00   0.0000E+00  0.000E+00  0.000E+00  0.000E+00  1.03364E+03  0.000E+00  1.200E+01  6.000E-01  9.835E-01  1.034E+03
   1   12    7     6     4    0.0000E+00  0.0000E+00   0.0000E+00  0.000E+00  0.000E+00  0.000E+00  1.02909E+03  0.000E+00  1.200E+01  6.000E-01  2.606E-01  1.029E+03
   1   13    7     6     5    0.0000E+00 -7.7560E-01   7.7560E-01  0.000E+00  0.000E+00  0.000E+00  1.02601E+03  1.003E-01  1.200E+01  2.400E-01 -1.077E+00  1.026E+03
   1   14    9     7     1    1.5000E+02  2.1374E+00   1.4786E+02  0.000E+00  0.000E+00  0.000E+00  1.03987E+03  2.286E+00  5.529E+01  5.592E+00  1.274E-01  1.038E+03
   1   13    8     7     2    1.4786E+02  3.1063E+00   1.4476E+02  0.000E+00  0.000E+00  0.000E+00  1.03477E+03  2.272E+00  5.522E+01  6.144E+00  1.685E-01  1.032E+03
   1   13    7     7     3    1.4476E+02  2.4270E+00   1.4233E+02  0.000E+00  0.000E+00  0.000E+00  1.02968E+03  2.257E+00  5.516E+01  5.578E+00  1.450E-01  1.027E+03
   1   13    6     8     1    1.4310E+02  7.1032E-01   1.4239E+02  0.000E+00  0.000E+00  0.000E+00  1.02464E+03  2.765E+00  4.009E+01  4.086E+00  5.795E-02  1.022E+03
   1   13    5     8     2    1.4239E+02 -2.0513E+00   1.4445E+02  0.000E+00  0.000E+00  0.000E+00  1.01839E+03  2.770E+00  4.016E+01  4.093E+00 -1.671E-01  1.016E+03
   1   13    4     8     3    1.4445E+02 -3.7623E+00   1.4821E+02  0.000E+00  0.000E+00  0.000E+00  1.01217E+03  2.791E+00  4.047E+01  4.124E+00 -3.041E-01  1.009E+03
   1   13    3     8     4    1.4821E+02 -3.9794E+00   1.5219E+02  0.000E+00  0.000E+00  0.000E+00  1.00594E+03  2.818E+00  4.086E+01  4.164E+00 -3.185E-01  1.003E+03
   1   13    2     8     5    1.5219E+02 -1.9974E+00   1.5418E+02  0.000E+00  0.000E+00  0.000E+00  9.99714E+02  2.839E+00  4.117E+01  4.195E+00 -1.587E-01  9.969E+02
   1   13    1     8     6    1.5418E+02 -4.7575E-01   1.5466E+02  0.000E+00  0.000E+00  0.000E+00  9.94723E+02  2.848E+00  4.129E+01  2.525E+00 -6.281E-02  9.919E+02



 UBDSV3 SAVING "           GW ET" ON UNIT 61 AT TIME STEP 15, STRESS PERIOD 12
 UBDSV3 SAVING "    UZF RECHARGE" ON UNIT 61 AT TIME STEP 15, STRESS PERIOD 12
 UBDSV3 SAVING " SURFACE LEAKAGE" ON UNIT 61 AT TIME STEP 15, STRESS PERIOD 12
 UBDSV3 SAVING "       HORT+DUNN" ON UNIT 61 AT TIME STEP 15, STRESS PERIOD 12
 UBDSV3 SAVING "  STORAGE CHANGE" ON UNIT 61 AT TIME STEP 15, STRESS PERIOD 12


UNSATURATED ZONE PACKAGE VOLUMETRIC BUDGET FOR  TIME STEP    15 STRESS PERIOD   12
  ------------------------------------------------------------------------------



     CUMULATIVE VOLUMES      L**3       RATES FOR THIS TIME STEP      L**3/T
     ------------------                 ------------------------

           IN:                                      IN:
           ---                                      ---
        INFILTRATION =     1.5367887E+9          INFILTRATION =        8.4750000

          OUT:                                     OUT:
          ----                                     ----
              UZF ET =     2.1304410E+9                UZF ET =       29.5380731
        UZF RECHARGE =     3.8679186E+8          UZF RECHARGE =       11.2499605

            IN - OUT =    -9.8044419E+8              IN - OUT =      -32.3130337

          STORAGE:                                 STORAGE:
          --------                                 --------
      STORAGE CHANGE =    -9.8031624E+8        STORAGE CHANGE =      -32.4109272

 PERCENT DISCREPANCY =          -0.00     PERCENT DISCREPANCY =           0.24




 PERCENT DISCREPANCY IS DIFFERENCE BETWEEN IN-OUT MINUS CHANGE IN STORAGE
 DIVIDED BY THE AVERAGE OF IN AND OUT TIMES 100



1
              HEAD IN LAYER   1 AT END OF TIME STEP  15 IN STRESS PERIOD   12
  ---------------------------------------------------------------------------

           1       2       3       4       5       6       7       8       9      10
 ...................................................................................
   1  1092.37 1088.62 6999.00 6999.00 6999.00 6999.00 6999.00 6999.00 6999.00 6999.00
   2  1089.01 1085.69 1079.29 6999.00 6999.00 1073.63 1072.54 1070.97 6999.00 6999.00
   3  6999.00 1077.38 1074.53 1070.40 1070.89 1069.73 1068.19 1067.88 6999.00 6999.00
   4  1069.51 1068.75 1067.10 1063.68 1062.51 1061.22 1061.78 1064.46 1063.91 6999.00
   5  1065.40 1061.88 1059.39 1057.54 1057.25 1057.77 1057.60 1059.59 1063.01 1065.39
   6  1060.65 1056.02 1053.12 1051.72 1052.00 1053.32 1054.52 1056.79 1059.55 1063.66
   7  1056.94 1050.38 1047.40 1046.23 1046.83 1048.45 1050.78 1053.10 1054.37 6999.00
   8  6999.00 1042.92 1041.40 1040.73 1041.58 1043.42 1045.19 1047.54 1049.31 6999.00
   9  6999.00 1035.93 1035.35 1035.29 1036.46 1038.47 1039.35 1041.08 1043.88 6999.00
  10  6999.00 1028.78 1029.18 1030.18 1031.62 1033.35 1034.61 1036.48 1040.18 1045.30
  11  6999.00 1019.85 1021.63 1025.14 1027.16 1029.22 1030.69 1032.96 1036.40 6999.00
  12  1001.21 1008.88 1014.17 1019.07 1022.71 1025.93 1028.31 1031.01 1034.88 6999.00
  13   994.91 1000.19 1006.90 1013.08 1018.90 1024.47 1029.24 1034.27 1036.38 6999.00
  14  6999.00 1005.79 1011.36 1016.09 1021.14 1025.87 1030.11 1035.21 1039.48 6999.00
  15  6999.00 6999.00 1018.96 1022.40 1026.57 1029.77 6999.00 6999.00 6999.00 6999.00

 HEAD WILL BE SAVED ON UNIT   58 AT END OF TIME STEP    15 IN STRESS PERIOD     12



  -------------------------------------------------------------------------------------
  VOLUMETRIC BUDGET FOR ENTIRE MODEL AT END OF TIME STEP   15 IN STRESS PERIOD     12
  -------------------------------------------------------------------------------------

     CUMULATIVE VOLUMES      L**3       RATES FOR THIS TIME STEP      L**3/T
     ------------------                 ------------------------

           IN:                                      IN:
           ---                                      ---
             STORAGE =   128136792.2867               STORAGE =           0.8575
       CONSTANT HEAD =           0.0000         CONSTANT HEAD =           0.0000
               WELLS =           0.0000                 WELLS =           0.0000
     HEAD DEP BOUNDS =     6590365.4338       HEAD DEP BOUNDS =           0.2096
      STREAM LEAKAGE =  1361017964.1753        STREAM LEAKAGE =          43.3810
        UZF RECHARGE =   386791855.6405          UZF RECHARGE =          11.2500
               GW ET =           0.0000                 GW ET =           0.0000
     SURFACE LEAKAGE =           0.0000       SURFACE LEAKAGE =           0.0000

            TOTAL IN =  1882536977.5363              TOTAL IN =          55.6980

          OUT:                                     OUT:
          ----                                     ----
             STORAGE =   504286986.4879               STORAGE =          22.7595
       CONSTANT HEAD =           0.0000         CONSTANT HEAD =           0.0000
               WELLS =   394200000.0000                 WELLS =           0.0000
     HEAD DEP BOUNDS =     8307082.8009       HEAD DEP BOUNDS =           0.2626
      STREAM LEAKAGE =   421745314.5262        STREAM LEAKAGE =          13.0417
        UZF RECHARGE =           0.0000          UZF RECHARGE =           0.0000
               GW ET =   553864641.9826                 GW ET =          19.6312
     SURFACE LEAKAGE =           0.0000       SURFACE LEAKAGE =           0.0000

           TOTAL OUT =  1882404025.7977             TOTAL OUT =          55.6951

            IN - OUT =      132951.7386              IN - OUT =       2.9137E-03

 PERCENT DISCREPANCY =           0.01     PERCENT DISCREPANCY =           0.01


          TIME SUMMARY AT END OF TIME STEP    15 IN STRESS PERIOD     12
                    SECONDS     MINUTES      HOURS       DAYS        YEARS
                    -----------------------------------------------------------
   TIME STEP LENGTH 3.14103E+05  5235.0      87.251      3.6354     9.95332E-03
 STRESS PERIOD TIME 2.62800E+06  43800.      730.00      30.417     8.32763E-02
         TOTAL TIME 3.15360E+07 5.25600E+05  8760.0      365.00     0.99932    
 

 Final Remark:

   The solver successfully met the user supplied convergence criteria, HCLOSE and RCLOSE, for all 166 time steps.

   Please check the "VOLUMETRIC BUDGET FOR ENTIRE MODEL" to ensure that mass rate balance errors are acceptable for all time steps.

   The cumulative mass error for the entire simulation is 0.01 %




 Simulation finished at  


 Which had an elapsed run time of: 0.0 seconds


    OneWater Simulation Now Complete


