
      MMMMMMM                                       MM      MMM     MM
    MMM     MMM    MM      M   MMMMMMMM             LM     DM M     ML     MM     MMMMMMMMM  MMMMMMMM  MMMMMMMM
   MM         MM   MMM     M   MM                    MM    MM M     M     MMMM        M      M         MM     NM
   MM         MM   MM M    M   MM                    MM    M  MM   MM    MM  MM       M      M         MM      M
   MM         MM   MM  M   M   MMMMMMMM               MN  MM   M   MM   MM    MM      M      MMMMMMM   MMMMMMMMM
   MM         MM   MM   M  M   MM         MMMMMMM     MM  M    MM MM    MMMMMMMM      M      M         MM   MM
   MM         MM   MM    M M   MM                     LM MM    NM MM   MM      MM     M      M         MM    MM
    MM       NM    MM     MM   MM                      M M      M M   MN        MM    M      M         MM     MM
     MMMMMMMMN     MM      M   MMMMMMMM                7MM      7MM  MN          MM   M      MMMMMMMM  MM      MM


 MODFLOW-OWHM v2.0.01  


                        MODFLOW
            ONE-WATER HYDROLOGIC-FLOW MODEL

    U.S. GEOLOGICAL SURVEY MODULAR FINITE-DIFFERENCE 
           CONJUNCTIVE USE SIMULATION PROGRAM

                     Version 2.0

 Release: 01          4/23/2020

 Includes:
          MODFLOW-2005 Version 1.12.0   02/03/2017
          MODFLOW-FMP  Version 4.00.0   04/23/2017
          MODFLOW-SWR  Version 1.04.0   09/15/2016
          MODFLOW-SWI  Version 2.00.0   07/22/2013
          MODFLOW-LGR  Version 2.00.0   09/19/2013
          MODFLOW-NWT  Version 1.2.0    03/01/2020
          MODFLOW-CFP  Version 1.09.57  09/12/2017


 OneWater Simulation Initiated at  


 LIST FILE: ./output/swi2ex4sww.lst
      UNIT: 2

OPENING DATA FILES [DATA AND DATA(BINARY)]

OPENED DATA FILE ON UNIT     55 WITH FILENAME OF: ./output/swi2ex4sww.zta
OPENED DATA FILE ON UNIT     51 WITH FILENAME OF: ./output/swi2ex4sww.hds

OPENING PACKAGES

DIS  PACKAGE OPENED.
BAS6 PACKAGE OPENED.
GHB  PACKAGE OPENED.
WEL  PACKAGE OPENED.
UPW  PACKAGE OPENED.
NWT  PACKAGE OPENED.
SWI  PACKAGE OPENED.
OC   PACKAGE OPENED.

NOTIFICATION: A FILE UNIT NUMBER WAS FOUND FOR EITHER THE LIST FILE OR A PACAKGE.
IT WILL BE USED EVEN THOUGH UNIT NUMBERS FOR THE LIST FILE AND PACKAGES ARE NOW OPTIONAL.
[IT IS RECOMMENDED TO STILL USE A UNIT NUMBER FOR DATA and DATA(BINARY) ]


 BAS -- BASIC PACKAGE, VERSION OWHM INPUT READ FROM UNIT    13
 
MODFLOW was compiled using uniform precision (Precision => Number of meaningful digits in numbers)
Precision of REAL and DOUBLE PRECISION variables: 15

 DISCRETIZATION INPUT DATA READ FROM UNIT   11

-- READING DIS PACKAGE INPUT --

# swi2ex4sww
# MODFLOW-NWT Example problem documented in:
# Niswonger, R.G., Panday, Sorab, and Ibaraki, Motomu, 2011, MODFLOW-NWT, A Newton formulation for MODFLOW-2005: U.S. Geological Survey Techniques and Methods 6-A37, 44 p.
#
#      -Comments are preceded by a # sign
#
#-----------------------------------------------------------------------------------------------------------------------------------------------------
#
# Discretization file for MODFLOW, generated by Flopy.


*** DIS COORDINATE SYSTEM NOT SEPECIFIED ***
DEFAULT VALUES APPLIED ARE 0° ROTATION
WITH THE ORIGIN (0,0) LOCATED AT THE MODEL'S LOWER LEFT CORNER




DIS COORDINATE SYSTEM SEPECIFIED WITH:
GRID ROTATION OF 0.0°
WITH THE ORIGIN LOCATED AT THE OUTER MOST CORNER OF MODEL CELL [61,1] WITH:
X-COORDINATE:0.0
Y-COORDINATE:0.0
    2 LAYERS        61 ROWS        61 COLUMNS
      3 STRESS PERIOD(S) IN SIMULATION
 MODEL TIME UNIT IS DAYS
 MODEL LENGTH UNIT IS METERS
  Confining bed flag for each layer:
   0   0
         0  5.000e+01           (5G13.0)         -1                # DELR(NCOL)                                                                                                                                                                                                                                                                                                                                                                                                                                                                                                                                                                                                                                                                                                                  

                     DELR =   50.0000    
         0  5.000e+01           (5G13.0)         -1                # DELC(NROW)                                                                                                                                                                                                                                                                                                                                                                                                                                                                                                                                                                                                                                                                                                                  

                     DELC =   50.0000    



           TOP ELEVATION OF LAYER 1
 READING ON UNIT   11 WITH FORMAT:            (5G13.0) 



             MODEL LAYER BOTTOM EL. FOR LAYER   1
 READING ON UNIT   11 WITH FORMAT:            (5G13.0) 



             MODEL LAYER BOTTOM EL. FOR LAYER   2
 READING ON UNIT   11 WITH FORMAT:            (5G13.0) 


 STRESS PERIOD     LENGTH       TIME STEPS     MULTIPLIER FOR DELT    SS FLAG  (OPTIONAL TIME STEP LENGTH)
 ---------------------------------------------------------------------------------------------------
        1         73000.00       1000                  1.00000         SS
        2         4380.000        120                  1.00000         SS
        3         6570.000        180                  1.00000         SS

 STEADY-STATE SIMULATION




-- READING BAS PACKAGE INPUT --

# swi2ex4sww
# MODFLOW-NWT Example problem documented in:
# Niswonger, R.G., Panday, Sorab, and Ibaraki, Motomu, 2011, MODFLOW-NWT, A Newton formulation for MODFLOW-2005: U.S. Geological Survey Techniques and Methods 6-A37, 44 p.
#
# Input modified for MODFLOW-OWHM by adding a BAS OPTIONS BLOCK with output options.
#
#-----------------------------------------------------------------------------------------------------------------------------------------------------
#
# Basic package file for MODFLOW, generated by Flopy.
#


 THE BAS PACKAGE NOW DEFAULTS TO FREE FORMAT.
 USE OPTION "NOFREE" TO DISABLE FREE FORMAT.

 NOW READING BAS OPTIONS

 FOUND OPTION: BUDGETDB
 FOUND OPTION: CUMULATIVE_HEAD_CHANGE
    THIS OPTION IS ONLY USEFUL FOR MODEL RESULT COMPARISON WITH DIFFERENT CODE COMPARISONS.

 FOUND OPTION: PRINT_HEAD    SP    TS   FILE
                              3   180   ./output/swi2ex4sww_Head.txt

 THE MAX STORAGE FOR PROPERTIES DEFINED BY PARAMETERS IS: 
 MAX STORAGE OF PARAMETERS (MXPAR)  IS       2000
 MAX STORAGE OF INSTANCES  (MXINST) IS      50000
 MAX STORAGE OF CLUSTERS   (MXCLST) IS    2000000




                     BOUNDARY ARRAY FOR LAYER   1
 READING ON UNIT   13 WITH FORMAT:               (5I4) 



                     BOUNDARY ARRAY FOR LAYER   2
 READING ON UNIT   13 WITH FORMAT:               (5I4) 

 AQUIFER HEAD WILL BE SET TO -999.99 AT ALL NO-FLOW NODES (IBOUND=0).




                       INITIAL HEAD FOR LAYER   1
 READING ON UNIT   13 WITH FORMAT:            (5G13.0) 



                       INITIAL HEAD FOR LAYER   2
 READING ON UNIT   13 WITH FORMAT:            (5G13.0) 

-- READING OC PACKAGE INPUT --

# swi2ex4sww
# MODFLOW-NWT Example problem documented in:
# Niswonger, R.G., Panday, Sorab, and Ibaraki, Motomu, 2011, MODFLOW-NWT, A Newton formulation for MODFLOW-2005: U.S. Geological Survey Techniques and Methods 6-A37, 44 p.
#
#-----------------------------------------------------------------------------------------------------------------------------------------------------
#
# Output control package file for MODFLOW, generated by Flopy. Output control by words option


 OUTPUT CONTROL IS SPECIFIED ONLY AT TIME STEPS FOR WHICH OUTPUT IS DESIRED
 HEAD PRINT FORMAT CODE IS   0    DRAWDOWN PRINT FORMAT CODE IS   0
 HEADS WILL BE SAVED ON UNIT   51    DRAWDOWNS WILL BE SAVED ON UNIT    0  WATER BUDGETs WILL BE SAVED ON UNIT 

# swi2ex4sww
# MODFLOW-NWT Example problem documented in:
# Niswonger, R.G., Panday, Sorab, and Ibaraki, Motomu, 2011, MODFLOW-NWT, A Newton formulation for MODFLOW-2005: U.S. Geological Survey Techniques and Methods 6-A37, 44 p.
#
#      -Comments are preceded by a # sign
#
#-----------------------------------------------------------------------------------------------------------------------------------------------------
#
# NWT Input File
# SWI2 example problem 4 for MODFLOW-NWT
#HEADTOL  FLUXTOL MAXITEROUT THICKFACT LINMETH IPRNWT IBOTAV OPTIONS DBDREDUCE DBDINCREASE DBDGAMMA MOMFACT BACKFLAG MAXBACKITER BACKTOL BACKREDUCE


 NWT1 -- Newton Solver, VERSION OWHM
         INPUT READ FROM UNIT   27

 SIMPLE OPTION:
 DEFAULT SOLVER INPUT VALUES REFLECT NEARLY LINEAR MODEL
 ***XMD linear solver will be used***
 
   CONVERGENCE CRITERION OF   0.100000E-04 FOR HEAD SOLUTION
   AND A TOLERANCE OF   0.500000E-01 FOR FLOW SOLUTION AND 
   A MAXIMUM OF   200 OUTER ITERATIONS. 


   D-B-D REDUCTION FACTOR OF    0.970000E+00 AND 
   A D-B-D INCREASE FACTOR OF    0.100000E-03 AND 
   A D-B-D RELAXATION OF    0.000000E+00 AND 
   A MOMENTUM FACTOR OF    0.000000E+00 .


 ***BACKTRACKING IS INACTIVE***
NWT THIN CELL CHECK DISABLED
IBOUND ARRAY WILL REMAIN UNCHANGED
 XMD -- LINEAR SOLUTION BY XMD PACKAGE VERSION 1.30
     BY MOTOMU IBARAKI, OHIO STATE UNIVERSITY, COLOMBUS, OH
                 INPUT READ FROM UNIT    27
 ACCELERATION METHOD                    (IACL) =         1
 NODE ORDERING FLAG                   (NORDER) =         0
 LEVEL OF FILL                         (LEVEL) =         1
 MAXIMUM NUMBER OF ORTHOGONALIZATIONS  (NORTH) =         5
 INDEX FOR USING REDUCED SYSTEM      (IREDSYS) =         1
 RESID. REDUCTION CONVERGE CRITERION  (RRCTOL) =  0.000000E+00
 INDEX FOR USING DROP TOLERANCE     (IDROPTOL) =         1
 DROP TOLERANCE VALUE                  (EPSRN) =  0.500000E-02
 CONVERGENCE CRITERIA OF           (HCLOSEXMD) =  0.100000E-02
 MAX. NUMBER OF LINEAR ITERATIONS  (MXITERXMD) =        50


 UPW1 -- UPSTREAM WEIGHTING FLOW PACKAGE, VERSION OWHM
         INPUT READ FROM UNIT    15


-- READING UPW PACKAGE INPUT --

# swi2ex4sww
# MODFLOW-NWT Example problem documented in:
# Niswonger, R.G., Panday, Sorab, and Ibaraki, Motomu, 2011, MODFLOW-NWT, A Newton formulation for MODFLOW-2005: U.S. Geological Survey Techniques and Methods 6-A37, 44 p.
#
#      -Comments are preceded by a # sign
#
#-----------------------------------------------------------------------------------------------------------------------------------------------------
#
# LPF for MODFLOW, generated by Flopy.

 CELL-BY-CELL FLOWS WILL BE SAVED ON UNIT   53
 No named parameters

   LAYER FLAGS:
 LAYER       LAYTYP          LAYAVG    CHANI           LAYVKA           LAYWET
 ---------------------------------------------------------------------------
    1             0             0     1.000E+00             0             0
    2             0             0     1.000E+00             0             0

   INTERPRETATION OF LAYER FLAGS:
                        INTERBLOCK     HORIZONTAL    DATA IN
         LAYER TYPE   TRANSMISSIVITY   ANISOTROPY   ARRAY VKA   WETTABILITY
 LAYER   (LAYTYP)        (LAYAVG)      (CHANI)     (LAYVKA)       (LAYWET)
 ---------------------------------------------------------------------------
    1      CONFINED      HARMONIC     1.000E+00    VERTICAL K     NEVER-DRY
    2      CONFINED      HARMONIC     1.000E+00    VERTICAL K     NEVER-DRY

    HYD. COND. ALONG ROWS =   10.0000     FOR LAYER   1

      VERTICAL HYD. COND. =  0.200000     FOR LAYER   1

    HYD. COND. ALONG ROWS =   10.0000     FOR LAYER   2

      VERTICAL HYD. COND. =  0.200000     FOR LAYER   2

-- READING WEL PACKAGE INPUT --

# swi2ex4sww
# MODFLOW-NWT Example problem documented in:
# Niswonger, R.G., Panday, Sorab, and Ibaraki, Motomu, 2011, MODFLOW-NWT, A Newton formulation for MODFLOW-2005: U.S. Geological Survey Techniques and Methods 6-A37, 44 p.
#
#-----------------------------------------------------------------------------------------------------------------------------------------------------
#
# Well file for MODFLOW, generated by Flopy.


WEL -- WELL PACKAGE, VERSION OWHM INPUT READ FROM UNIT 20

 No named parameters

 NO TABFILE SPECIFIED FOR PACKAGE WEL  


 NO LINEFEEDS ARE SPECIFIED FOR PACKAGE WEL  


MAXIMUM OF 1683 ACTIVE WELLS AT ONE TIME


 NEGATIVE PUMPING RATES WILL BE REDUCED IF HEAD  FALLS WITHIN THE INTERVAL PHIRAMP TIMES THE CELL THICKNESS.
THE VALUE SPECIFIED FOR PHIRAMP IS 0.1
WELLS WITH REDUCED PUMPING WILL NOT BE REPORTED TO SEPARATE FILE, BUT INSTEAD WRITTEN TO LIST.

0 Well parameters

 GHB -- GENERAL-HEAD BOUNDARY PACKAGE, VERSION OWHM
         INPUT READ FROM UNIT   23

-- READING GHB PACKAGE INPUT --

# swi2ex4sww
# MODFLOW-NWT Example problem documented in:
# Niswonger, R.G., Panday, Sorab, and Ibaraki, Motomu, 2011, MODFLOW-NWT, A Newton formulation for MODFLOW-2005: U.S. Geological Survey Techniques and Methods 6-A37, 44 p.
#
#-----------------------------------------------------------------------------------------------------------------------------------------------------
#
# GHB for MODFLOW, generated by Flopy.

 No named parameters

 NO TABFILE SPECIFIED FOR PACKAGE GHB  


 NO LINEFEEDS ARE SPECIFIED FOR PACKAGE GHB  

 MAXIMUM OF   2040 ACTIVE GHB CELLS AT ONE TIME


     0 GHB parameters

-- READING SWI PACKAGE INPUT --

# swi2ex4sww
# MODFLOW-NWT Example problem documented in:
# Niswonger, R.G., Panday, Sorab, and Ibaraki, Motomu, 2011, MODFLOW-NWT, A Newton formulation for MODFLOW-2005: U.S. Geological Survey Techniques and Methods 6-A37, 44 p.
#
#      -Comments are preceded by a # sign
#
#-----------------------------------------------------------------------------------------------------------------------------------------------------
#
# Salt Water Intrusion package file for MODFLOW-2005, generated by Flopy.
#--Dataset 1



 SWI2 -- SWI PACKAGE, VERSION OWHM
 --------------------------------------------------
 SWI2 INPUT READ FROM UNIT 29




 SWI2 DATASET 1
 ----------------------------------------------------
 NUMBER OF SURFACES (NSRF):                         1
 TOTAL NUMBER OF ZONES:                             2
 DENSITY DISTRIBUTION OPTION (ISTRAT):              1
   VARIABLE DENSITY FLOW -- ISTRAT = 0
   STRATIFIED FLOW       -- ISTRAT = 1
 NUMBER OF SWI OBSERVATIONS (NOBS):                 0
 ZETA OUTPUT FILE UNIT NUMBER (ISWIZT):            55
 BUDGET OUTPUT FILE UNIT NUMBER (ISWICB):           0
 OBSERVATION OUTPUT FILE UNIT NUMBER (ISWIOBS):     0
 ----------------------------------------------------


 SWI2 DATASET 2A
 ----------------------------------------------------
 SOLVER (NSOLVER):                                  1
   SOLVER =                      DIRECT SOLVER (DE4)
 SOLVER PRINTOUT INTERVAL (IPRSOL):               999
 SOLVER OUTPUT FLAG (MUTSOL):                       3
   0 = PRINTING EVERY ITERATION
   1 = LIMITED (TOTAL NUMBER OF ITERATIONS)
   2 = NO PRINTING
   3 = ONLY IF CONVERGENCE FAILS
 ----------------------------------------------------


 SWI2 DATASET 3A
 ----------------------------------------------------
 MAXIMUM TOE SURFACE SLOPE (TOESLOPE):      0.500E-02
 MAXIMUM TIP SURFACE SLOPE (TIPSLOPE):      0.500E-02
 EXCESS SURFACE SLOPE FRACTION (ALPHA):     0.100    
 MINIMUM ZONE THICKNESS FRACTION (BETA):    0.100    
 ----------------------------------------------------
         29         1          (20G13.0)         -1                                                                                                                                                                                                                                                                                                                                                                                                                                                                                                                                                                                                                                                                                                                                              



                             NUZONE
 READING ON UNIT   29 WITH FORMAT:           (20G13.0) 



                   ZETA SURFACE  1  FOR LAYER   1
 READING ON UNIT   29 WITH FORMAT:           (61G13.0) 



                   ZETA SURFACE  1  FOR LAYER   2
 READING ON UNIT   29 WITH FORMAT:           (61G13.0) 

                      SSZ =  0.200000     FOR LAYER   1

                      SSZ =  0.200000     FOR LAYER   2



                            IZONENR FOR LAYER   1
 READING ON UNIT   29 WITH FORMAT:             (61I13) 



                            IZONENR FOR LAYER   2
 READING ON UNIT   29 WITH FORMAT:             (61I13) 


########################################################################################################

                           WARNING_MESSAGE

         THE FOLLOWING COMMENTS WERE PASSED TO THE WARNING ROUTINE

THE DESRIPTION OF THE WARNING IS:

DIS PACKAGE: THE GROUND SURFACE ELEVATION WAS NOT SPECIFIED WITH THE KEYWORD "SURFACE_ELEVATION"

BEFORE LOADING THE "TOP" ARRAY FOR LAYER 1
NOR WAS IT DEFINED WITH ANOTHER PACKAGE   (e.g. FMPs GLOBAL DIMENSION KEYWORD "SURFACE_ELEVATION")

OneWater WILL SET THE GROUND SURFACE ELEVATION (GSE)
TO THE TOP ELEVATION OF THE UPPER MOST ACTIVE CELL OR THE DIS TOP OF LAY1.

NOTE THAT SFR DOES USE GSE FOR ALL DIVERSION SEGMENTS
   WHEN "IRDFLG" IS SET TO 2 or -2.

########################################################################################################



1
                            STRESS PERIOD NO.      1, LENGTH =   73000.00    
                            -----------------------------------------------

                              NUMBER OF TIME STEPS =  1000

                               MULTIPLIER FOR DELT =     1.000

                            INITIAL TIME STEP SIZE =   73.00000    

PARAMETERS HAVE BEEN USED IN PACKAGES

THE CURRENT STORAGE FOR PARAMETERS IS: 
No. PARAMETER=         0 WITH MAX STORAGE (MXPAR)  OF      2000
No. CLUSTERS =         0 WITH MAX STORAGE (MXCLST) OF   2000000
No. INSTANCES=         0 WITH MAX STORAGE (MXINST) OF     50000

YOU CAN INCREASE/DECREASE STORAGE WITH BAS OPTION:
MAXPARAM  MXPAR  MXCLST MXINST

FYI, YOU CAN REDUCE RAM USUAGE WITH BAS OPTION
(NOTE THE THREE NUMBERS ARE A MINUMUM SIZE):
   MAXPARAM          1         1         1


 WEL PACKAGE STRESS PERIOD INFORMATION [BEFORE APPLICATION OF TABFILES]

 WELL NO.  LAYER   ROW   COL   STRESS RATE         
 --------------------------------------------------
      1      1     11     11   1.0000000    
      2      1     11     12   1.0000000    
      3      1     11     13   1.0000000    
      4      1     11     14   1.0000000    
      5      1     11     15   1.0000000    
      6      1     11     16   1.0000000    
      7      1     11     17   1.0000000    
      8      1     11     18   1.0000000    
      9      1     11     19   1.0000000    
     10      1     11     20   1.0000000    
     11      1     11     21   1.0000000    
     12      1     11     22   1.0000000    
     13      1     11     23   1.0000000    
     14      1     11     24   1.0000000    
     15      1     11     25   1.0000000    
     16      1     11     26   1.0000000    
     17      1     11     27   1.0000000    
     18      1     11     28   1.0000000    
     19      1     11     29   1.0000000    
     20      1     11     30   1.0000000    
     21      1     11     31   1.0000000    
     22      1     11     32   1.0000000    
     23      1     11     33   1.0000000    
     24      1     11     34   1.0000000    
     25      1     11     35   1.0000000    
     26      1     11     36   1.0000000    
     27      1     11     37   1.0000000    
     28      1     11     38   1.0000000    
     29      1     11     39   1.0000000    
     30      1     11     40   1.0000000    
     31      1     11     41   1.0000000    
     32      1     11     42   1.0000000    
     33      1     11     43   1.0000000    
     34      1     11     44   1.0000000    
     35      1     11     45   1.0000000    
     36      1     11     46   1.0000000    
     37      1     11     47   1.0000000    
     38      1     11     48   1.0000000    
     39      1     11     49   1.0000000    
     40      1     11     50   1.0000000    
     41      1     11     51   1.0000000    
     42      1     12     11   1.0000000    
     43      1     12     12   1.0000000    
     44      1     12     13   1.0000000    
     45      1     12     14   1.0000000    
     46      1     12     15   1.0000000    
     47      1     12     16   1.0000000    
     48      1     12     17   1.0000000    
     49      1     12     18   1.0000000    
     50      1     12     19   1.0000000    
     51      1     12     20   1.0000000    
     52      1     12     21   1.0000000    
     53      1     12     22   1.0000000    
     54      1     12     23   1.0000000    
     55      1     12     24   1.0000000    
     56      1     12     25   1.0000000    
     57      1     12     26   1.0000000    
     58      1     12     27   1.0000000    
     59      1     12     28   1.0000000    
     60      1     12     29   1.0000000    
     61      1     12     30   1.0000000    
     62      1     12     31   1.0000000    
     63      1     12     32   1.0000000    
     64      1     12     33   1.0000000    
     65      1     12     34   1.0000000    
     66      1     12     35   1.0000000    
     67      1     12     36   1.0000000    
     68      1     12     37   1.0000000    
     69      1     12     38   1.0000000    
     70      1     12     39   1.0000000    
     71      1     12     40   1.0000000    
     72      1     12     41   1.0000000    
     73      1     12     42   1.0000000    
     74      1     12     43   1.0000000    
     75      1     12     44   1.0000000    
     76      1     12     45   1.0000000    
     77      1     12     46   1.0000000    
     78      1     12     47   1.0000000    
     79      1     12     48   1.0000000    
     80      1     12     49   1.0000000    
     81      1     12     50   1.0000000    
     82      1     12     51   1.0000000    
     83      1     13     11   1.0000000    
     84      1     13     12   1.0000000    
     85      1     13     13   1.0000000    
     86      1     13     14   1.0000000    
     87      1     13     15   1.0000000    
     88      1     13     16   1.0000000    
     89      1     13     17   1.0000000    
     90      1     13     18   1.0000000    
     91      1     13     19   1.0000000    
     92      1     13     20   1.0000000    
     93      1     13     21   1.0000000    
     94      1     13     22   1.0000000    
     95      1     13     23   1.0000000    
     96      1     13     24   1.0000000    
     97      1     13     25   1.0000000    
     98      1     13     26   1.0000000    
     99      1     13     27   1.0000000    
    100      1     13     28   1.0000000    
    101      1     13     29   1.0000000    
    102      1     13     30   1.0000000    
    103      1     13     31   1.0000000    
    104      1     13     32   1.0000000    
    105      1     13     33   1.0000000    
    106      1     13     34   1.0000000    
    107      1     13     35   1.0000000    
    108      1     13     36   1.0000000    
    109      1     13     37   1.0000000    
    110      1     13     38   1.0000000    
    111      1     13     39   1.0000000    
    112      1     13     40   1.0000000    
    113      1     13     41   1.0000000    
    114      1     13     42   1.0000000    
    115      1     13     43   1.0000000    
    116      1     13     44   1.0000000    
    117      1     13     45   1.0000000    
    118      1     13     46   1.0000000    
    119      1     13     47   1.0000000    
    120      1     13     48   1.0000000    
    121      1     13     49   1.0000000    
    122      1     13     50   1.0000000    
    123      1     13     51   1.0000000    
    124      1     14     11   1.0000000    
    125      1     14     12   1.0000000    
    126      1     14     13   1.0000000    
    127      1     14     14   1.0000000    
    128      1     14     15   1.0000000    
    129      1     14     16   1.0000000    
    130      1     14     17   1.0000000    
    131      1     14     18   1.0000000    
    132      1     14     19   1.0000000    
    133      1     14     20   1.0000000    
    134      1     14     21   1.0000000    
    135      1     14     22   1.0000000    
    136      1     14     23   1.0000000    
    137      1     14     24   1.0000000    
    138      1     14     25   1.0000000    
    139      1     14     26   1.0000000    
    140      1     14     27   1.0000000    
    141      1     14     28   1.0000000    
    142      1     14     29   1.0000000    
    143      1     14     30   1.0000000    
    144      1     14     31   1.0000000    
    145      1     14     32   1.0000000    
    146      1     14     33   1.0000000    
    147      1     14     34   1.0000000    
    148      1     14     35   1.0000000    
    149      1     14     36   1.0000000    
    150      1     14     37   1.0000000    
    151      1     14     38   1.0000000    
    152      1     14     39   1.0000000    
    153      1     14     40   1.0000000    
    154      1     14     41   1.0000000    
    155      1     14     42   1.0000000    
    156      1     14     43   1.0000000    
    157      1     14     44   1.0000000    
    158      1     14     45   1.0000000    
    159      1     14     46   1.0000000    
    160      1     14     47   1.0000000    
    161      1     14     48   1.0000000    
    162      1     14     49   1.0000000    
    163      1     14     50   1.0000000    
    164      1     14     51   1.0000000    
    165      1     15     11   1.0000000    
    166      1     15     12   1.0000000    
    167      1     15     13   1.0000000    
    168      1     15     14   1.0000000    
    169      1     15     15   1.0000000    
    170      1     15     16   1.0000000    
    171      1     15     17   1.0000000    
    172      1     15     18   1.0000000    
    173      1     15     19   1.0000000    
    174      1     15     20   1.0000000    
    175      1     15     21   1.0000000    
    176      1     15     22   1.0000000    
    177      1     15     23   1.0000000    
    178      1     15     24   1.0000000    
    179      1     15     25   1.0000000    
    180      1     15     26   1.0000000    
    181      1     15     27   1.0000000    
    182      1     15     28   1.0000000    
    183      1     15     29   1.0000000    
    184      1     15     30   1.0000000    
    185      1     15     31   1.0000000    
    186      1     15     32   1.0000000    
    187      1     15     33   1.0000000    
    188      1     15     34   1.0000000    
    189      1     15     35   1.0000000    
    190      1     15     36   1.0000000    
    191      1     15     37   1.0000000    
    192      1     15     38   1.0000000    
    193      1     15     39   1.0000000    
    194      1     15     40   1.0000000    
    195      1     15     41   1.0000000    
    196      1     15     42   1.0000000    
    197      1     15     43   1.0000000    
    198      1     15     44   1.0000000    
    199      1     15     45   1.0000000    
    200      1     15     46   1.0000000    
    201      1     15     47   1.0000000    
    202      1     15     48   1.0000000    
    203      1     15     49   1.0000000    
    204      1     15     50   1.0000000    
    205      1     15     51   1.0000000    
    206      1     16     11   1.0000000    
    207      1     16     12   1.0000000    
    208      1     16     13   1.0000000    
    209      1     16     14   1.0000000    
    210      1     16     15   1.0000000    
    211      1     16     16   1.0000000    
    212      1     16     17   1.0000000    
    213      1     16     18   1.0000000    
    214      1     16     19   1.0000000    
    215      1     16     20   1.0000000    
    216      1     16     21   1.0000000    
    217      1     16     22   1.0000000    
    218      1     16     23   1.0000000    
    219      1     16     24   1.0000000    
    220      1     16     25   1.0000000    
    221      1     16     26   1.0000000    
    222      1     16     27   1.0000000    
    223      1     16     28   1.0000000    
    224      1     16     29   1.0000000    
    225      1     16     30   1.0000000    
    226      1     16     31   1.0000000    
    227      1     16     32   1.0000000    
    228      1     16     33   1.0000000    
    229      1     16     34   1.0000000    
    230      1     16     35   1.0000000    
    231      1     16     36   1.0000000    
    232      1     16     37   1.0000000    
    233      1     16     38   1.0000000    
    234      1     16     39   1.0000000    
    235      1     16     40   1.0000000    
    236      1     16     41   1.0000000    
    237      1     16     42   1.0000000    
    238      1     16     43   1.0000000    
    239      1     16     44   1.0000000    
    240      1     16     45   1.0000000    
    241      1     16     46   1.0000000    
    242      1     16     47   1.0000000    
    243      1     16     48   1.0000000    
    244      1     16     49   1.0000000    
    245      1     16     50   1.0000000    
    246      1     16     51   1.0000000    
    247      1     17     11   1.0000000    
    248      1     17     12   1.0000000    
    249      1     17     13   1.0000000    
    250      1     17     14   1.0000000    
    251      1     17     15   1.0000000    
    252      1     17     16   1.0000000    
    253      1     17     17   1.0000000    
    254      1     17     18   1.0000000    
    255      1     17     19   1.0000000    
    256      1     17     20   1.0000000    
    257      1     17     21   1.0000000    
    258      1     17     22   1.0000000    
    259      1     17     23   1.0000000    
    260      1     17     24   1.0000000    
    261      1     17     25   1.0000000    
    262      1     17     26   1.0000000    
    263      1     17     27   1.0000000    
    264      1     17     28   1.0000000    
    265      1     17     29   1.0000000    
    266      1     17     30   1.0000000    
    267      1     17     31   1.0000000    
    268      1     17     32   1.0000000    
    269      1     17     33   1.0000000    
    270      1     17     34   1.0000000    
    271      1     17     35   1.0000000    
    272      1     17     36   1.0000000    
    273      1     17     37   1.0000000    
    274      1     17     38   1.0000000    
    275      1     17     39   1.0000000    
    276      1     17     40   1.0000000    
    277      1     17     41   1.0000000    
    278      1     17     42   1.0000000    
    279      1     17     43   1.0000000    
    280      1     17     44   1.0000000    
    281      1     17     45   1.0000000    
    282      1     17     46   1.0000000    
    283      1     17     47   1.0000000    
    284      1     17     48   1.0000000    
    285      1     17     49   1.0000000    
    286      1     17     50   1.0000000    
    287      1     17     51   1.0000000    
    288      1     18     11   1.0000000    
    289      1     18     12   1.0000000    
    290      1     18     13   1.0000000    
    291      1     18     14   1.0000000    
    292      1     18     15   1.0000000    
    293      1     18     16   1.0000000    
    294      1     18     17   1.0000000    
    295      1     18     18   1.0000000    
    296      1     18     19   1.0000000    
    297      1     18     20   1.0000000    
    298      1     18     21   1.0000000    
    299      1     18     22   1.0000000    
    300      1     18     23   1.0000000    
    301      1     18     24   1.0000000    
    302      1     18     25   1.0000000    
    303      1     18     26   1.0000000    
    304      1     18     27   1.0000000    
    305      1     18     28   1.0000000    
    306      1     18     29   1.0000000    
    307      1     18     30   1.0000000    
    308      1     18     31   1.0000000    
    309      1     18     32   1.0000000    
    310      1     18     33   1.0000000    
    311      1     18     34   1.0000000    
    312      1     18     35   1.0000000    
    313      1     18     36   1.0000000    
    314      1     18     37   1.0000000    
    315      1     18     38   1.0000000    
    316      1     18     39   1.0000000    
    317      1     18     40   1.0000000    
    318      1     18     41   1.0000000    
    319      1     18     42   1.0000000    
    320      1     18     43   1.0000000    
    321      1     18     44   1.0000000    
    322      1     18     45   1.0000000    
    323      1     18     46   1.0000000    
    324      1     18     47   1.0000000    
    325      1     18     48   1.0000000    
    326      1     18     49   1.0000000    
    327      1     18     50   1.0000000    
    328      1     18     51   1.0000000    
    329      1     19     11   1.0000000    
    330      1     19     12   1.0000000    
    331      1     19     13   1.0000000    
    332      1     19     14   1.0000000    
    333      1     19     15   1.0000000    
    334      1     19     16   1.0000000    
    335      1     19     17   1.0000000    
    336      1     19     18   1.0000000    
    337      1     19     19   1.0000000    
    338      1     19     20   1.0000000    
    339      1     19     21   1.0000000    
    340      1     19     22   1.0000000    
    341      1     19     23   1.0000000    
    342      1     19     24   1.0000000    
    343      1     19     25   1.0000000    
    344      1     19     26   1.0000000    
    345      1     19     27   1.0000000    
    346      1     19     28   1.0000000    
    347      1     19     29   1.0000000    
    348      1     19     30   1.0000000    
    349      1     19     31   1.0000000    
    350      1     19     32   1.0000000    
    351      1     19     33   1.0000000    
    352      1     19     34   1.0000000    
    353      1     19     35   1.0000000    
    354      1     19     36   1.0000000    
    355      1     19     37   1.0000000    
    356      1     19     38   1.0000000    
    357      1     19     39   1.0000000    
    358      1     19     40   1.0000000    
    359      1     19     41   1.0000000    
    360      1     19     42   1.0000000    
    361      1     19     43   1.0000000    
    362      1     19     44   1.0000000    
    363      1     19     45   1.0000000    
    364      1     19     46   1.0000000    
    365      1     19     47   1.0000000    
    366      1     19     48   1.0000000    
    367      1     19     49   1.0000000    
    368      1     19     50   1.0000000    
    369      1     19     51   1.0000000    
    370      1     20     11   1.0000000    
    371      1     20     12   1.0000000    
    372      1     20     13   1.0000000    
    373      1     20     14   1.0000000    
    374      1     20     15   1.0000000    
    375      1     20     16   1.0000000    
    376      1     20     17   1.0000000    
    377      1     20     18   1.0000000    
    378      1     20     19   1.0000000    
    379      1     20     20   1.0000000    
    380      1     20     21   1.0000000    
    381      1     20     22   1.0000000    
    382      1     20     23   1.0000000    
    383      1     20     24   1.0000000    
    384      1     20     25   1.0000000    
    385      1     20     26   1.0000000    
    386      1     20     27   1.0000000    
    387      1     20     28   1.0000000    
    388      1     20     29   1.0000000    
    389      1     20     30   1.0000000    
    390      1     20     31   1.0000000    
    391      1     20     32   1.0000000    
    392      1     20     33   1.0000000    
    393      1     20     34   1.0000000    
    394      1     20     35   1.0000000    
    395      1     20     36   1.0000000    
    396      1     20     37   1.0000000    
    397      1     20     38   1.0000000    
    398      1     20     39   1.0000000    
    399      1     20     40   1.0000000    
    400      1     20     41   1.0000000    
    401      1     20     42   1.0000000    
    402      1     20     43   1.0000000    
    403      1     20     44   1.0000000    
    404      1     20     45   1.0000000    
    405      1     20     46   1.0000000    
    406      1     20     47   1.0000000    
    407      1     20     48   1.0000000    
    408      1     20     49   1.0000000    
    409      1     20     50   1.0000000    
    410      1     20     51   1.0000000    
    411      1     21     11   1.0000000    
    412      1     21     12   1.0000000    
    413      1     21     13   1.0000000    
    414      1     21     14   1.0000000    
    415      1     21     15   1.0000000    
    416      1     21     16   1.0000000    
    417      1     21     17   1.0000000    
    418      1     21     18   1.0000000    
    419      1     21     19   1.0000000    
    420      1     21     20   1.0000000    
    421      1     21     21   1.0000000    
    422      1     21     22   1.0000000    
    423      1     21     23   1.0000000    
    424      1     21     24   1.0000000    
    425      1     21     25   1.0000000    
    426      1     21     26   1.0000000    
    427      1     21     27   1.0000000    
    428      1     21     28   1.0000000    
    429      1     21     29   1.0000000    
    430      1     21     30   1.0000000    
    431      1     21     31   1.0000000    
    432      1     21     32   1.0000000    
    433      1     21     33   1.0000000    
    434      1     21     34   1.0000000    
    435      1     21     35   1.0000000    
    436      1     21     36   1.0000000    
    437      1     21     37   1.0000000    
    438      1     21     38   1.0000000    
    439      1     21     39   1.0000000    
    440      1     21     40   1.0000000    
    441      1     21     41   1.0000000    
    442      1     21     42   1.0000000    
    443      1     21     43   1.0000000    
    444      1     21     44   1.0000000    
    445      1     21     45   1.0000000    
    446      1     21     46   1.0000000    
    447      1     21     47   1.0000000    
    448      1     21     48   1.0000000    
    449      1     21     49   1.0000000    
    450      1     21     50   1.0000000    
    451      1     21     51   1.0000000    
    452      1     22     11   1.0000000    
    453      1     22     12   1.0000000    
    454      1     22     13   1.0000000    
    455      1     22     14   1.0000000    
    456      1     22     15   1.0000000    
    457      1     22     16   1.0000000    
    458      1     22     17   1.0000000    
    459      1     22     18   1.0000000    
    460      1     22     19   1.0000000    
    461      1     22     20   1.0000000    
    462      1     22     21   1.0000000    
    463      1     22     22   1.0000000    
    464      1     22     23   1.0000000    
    465      1     22     24   1.0000000    
    466      1     22     25   1.0000000    
    467      1     22     26   1.0000000    
    468      1     22     27   1.0000000    
    469      1     22     28   1.0000000    
    470      1     22     29   1.0000000    
    471      1     22     30   1.0000000    
    472      1     22     31   1.0000000    
    473      1     22     32   1.0000000    
    474      1     22     33   1.0000000    
    475      1     22     34   1.0000000    
    476      1     22     35   1.0000000    
    477      1     22     36   1.0000000    
    478      1     22     37   1.0000000    
    479      1     22     38   1.0000000    
    480      1     22     39   1.0000000    
    481      1     22     40   1.0000000    
    482      1     22     41   1.0000000    
    483      1     22     42   1.0000000    
    484      1     22     43   1.0000000    
    485      1     22     44   1.0000000    
    486      1     22     45   1.0000000    
    487      1     22     46   1.0000000    
    488      1     22     47   1.0000000    
    489      1     22     48   1.0000000    
    490      1     22     49   1.0000000    
    491      1     22     50   1.0000000    
    492      1     22     51   1.0000000    
    493      1     23     11   1.0000000    
    494      1     23     12   1.0000000    
    495      1     23     13   1.0000000    
    496      1     23     14   1.0000000    
    497      1     23     15   1.0000000    
    498      1     23     16   1.0000000    
    499      1     23     17   1.0000000    
    500      1     23     18   1.0000000    
    501      1     23     19   1.0000000    
    502      1     23     20   1.0000000    
    503      1     23     21   1.0000000    
    504      1     23     22   1.0000000    
    505      1     23     23   1.0000000    
    506      1     23     24   1.0000000    
    507      1     23     25   1.0000000    
    508      1     23     26   1.0000000    
    509      1     23     27   1.0000000    
    510      1     23     28   1.0000000    
    511      1     23     29   1.0000000    
    512      1     23     30   1.0000000    
    513      1     23     31   1.0000000    
    514      1     23     32   1.0000000    
    515      1     23     33   1.0000000    
    516      1     23     34   1.0000000    
    517      1     23     35   1.0000000    
    518      1     23     36   1.0000000    
    519      1     23     37   1.0000000    
    520      1     23     38   1.0000000    
    521      1     23     39   1.0000000    
    522      1     23     40   1.0000000    
    523      1     23     41   1.0000000    
    524      1     23     42   1.0000000    
    525      1     23     43   1.0000000    
    526      1     23     44   1.0000000    
    527      1     23     45   1.0000000    
    528      1     23     46   1.0000000    
    529      1     23     47   1.0000000    
    530      1     23     48   1.0000000    
    531      1     23     49   1.0000000    
    532      1     23     50   1.0000000    
    533      1     23     51   1.0000000    
    534      1     24     11   1.0000000    
    535      1     24     12   1.0000000    
    536      1     24     13   1.0000000    
    537      1     24     14   1.0000000    
    538      1     24     15   1.0000000    
    539      1     24     16   1.0000000    
    540      1     24     17   1.0000000    
    541      1     24     18   1.0000000    
    542      1     24     19   1.0000000    
    543      1     24     20   1.0000000    
    544      1     24     21   1.0000000    
    545      1     24     22   1.0000000    
    546      1     24     23   1.0000000    
    547      1     24     24   1.0000000    
    548      1     24     25   1.0000000    
    549      1     24     26   1.0000000    
    550      1     24     27   1.0000000    
    551      1     24     28   1.0000000    
    552      1     24     29   1.0000000    
    553      1     24     30   1.0000000    
    554      1     24     31   1.0000000    
    555      1     24     32   1.0000000    
    556      1     24     33   1.0000000    
    557      1     24     34   1.0000000    
    558      1     24     35   1.0000000    
    559      1     24     36   1.0000000    
    560      1     24     37   1.0000000    
    561      1     24     38   1.0000000    
    562      1     24     39   1.0000000    
    563      1     24     40   1.0000000    
    564      1     24     41   1.0000000    
    565      1     24     42   1.0000000    
    566      1     24     43   1.0000000    
    567      1     24     44   1.0000000    
    568      1     24     45   1.0000000    
    569      1     24     46   1.0000000    
    570      1     24     47   1.0000000    
    571      1     24     48   1.0000000    
    572      1     24     49   1.0000000    
    573      1     24     50   1.0000000    
    574      1     24     51   1.0000000    
    575      1     25     11   1.0000000    
    576      1     25     12   1.0000000    
    577      1     25     13   1.0000000    
    578      1     25     14   1.0000000    
    579      1     25     15   1.0000000    
    580      1     25     16   1.0000000    
    581      1     25     17   1.0000000    
    582      1     25     18   1.0000000    
    583      1     25     19   1.0000000    
    584      1     25     20   1.0000000    
    585      1     25     21   1.0000000    
    586      1     25     22   1.0000000    
    587      1     25     23   1.0000000    
    588      1     25     24   1.0000000    
    589      1     25     25   1.0000000    
    590      1     25     26   1.0000000    
    591      1     25     27   1.0000000    
    592      1     25     28   1.0000000    
    593      1     25     29   1.0000000    
    594      1     25     30   1.0000000    
    595      1     25     31   1.0000000    
    596      1     25     32   1.0000000    
    597      1     25     33   1.0000000    
    598      1     25     34   1.0000000    
    599      1     25     35   1.0000000    
    600      1     25     36   1.0000000    
    601      1     25     37   1.0000000    
    602      1     25     38   1.0000000    
    603      1     25     39   1.0000000    
    604      1     25     40   1.0000000    
    605      1     25     41   1.0000000    
    606      1     25     42   1.0000000    
    607      1     25     43   1.0000000    
    608      1     25     44   1.0000000    
    609      1     25     45   1.0000000    
    610      1     25     46   1.0000000    
    611      1     25     47   1.0000000    
    612      1     25     48   1.0000000    
    613      1     25     49   1.0000000    
    614      1     25     50   1.0000000    
    615      1     25     51   1.0000000    
    616      1     26     11   1.0000000    
    617      1     26     12   1.0000000    
    618      1     26     13   1.0000000    
    619      1     26     14   1.0000000    
    620      1     26     15   1.0000000    
    621      1     26     16   1.0000000    
    622      1     26     17   1.0000000    
    623      1     26     18   1.0000000    
    624      1     26     19   1.0000000    
    625      1     26     20   1.0000000    
    626      1     26     21   1.0000000    
    627      1     26     22   1.0000000    
    628      1     26     23   1.0000000    
    629      1     26     24   1.0000000    
    630      1     26     25   1.0000000    
    631      1     26     26   1.0000000    
    632      1     26     27   1.0000000    
    633      1     26     28   1.0000000    
    634      1     26     29   1.0000000    
    635      1     26     30   1.0000000    
    636      1     26     31   1.0000000    
    637      1     26     32   1.0000000    
    638      1     26     33   1.0000000    
    639      1     26     34   1.0000000    
    640      1     26     35   1.0000000    
    641      1     26     36   1.0000000    
    642      1     26     37   1.0000000    
    643      1     26     38   1.0000000    
    644      1     26     39   1.0000000    
    645      1     26     40   1.0000000    
    646      1     26     41   1.0000000    
    647      1     26     42   1.0000000    
    648      1     26     43   1.0000000    
    649      1     26     44   1.0000000    
    650      1     26     45   1.0000000    
    651      1     26     46   1.0000000    
    652      1     26     47   1.0000000    
    653      1     26     48   1.0000000    
    654      1     26     49   1.0000000    
    655      1     26     50   1.0000000    
    656      1     26     51   1.0000000    
    657      1     27     11   1.0000000    
    658      1     27     12   1.0000000    
    659      1     27     13   1.0000000    
    660      1     27     14   1.0000000    
    661      1     27     15   1.0000000    
    662      1     27     16   1.0000000    
    663      1     27     17   1.0000000    
    664      1     27     18   1.0000000    
    665      1     27     19   1.0000000    
    666      1     27     20   1.0000000    
    667      1     27     21   1.0000000    
    668      1     27     22   1.0000000    
    669      1     27     23   1.0000000    
    670      1     27     24   1.0000000    
    671      1     27     25   1.0000000    
    672      1     27     26   1.0000000    
    673      1     27     27   1.0000000    
    674      1     27     28   1.0000000    
    675      1     27     29   1.0000000    
    676      1     27     30   1.0000000    
    677      1     27     31   1.0000000    
    678      1     27     32   1.0000000    
    679      1     27     33   1.0000000    
    680      1     27     34   1.0000000    
    681      1     27     35   1.0000000    
    682      1     27     36   1.0000000    
    683      1     27     37   1.0000000    
    684      1     27     38   1.0000000    
    685      1     27     39   1.0000000    
    686      1     27     40   1.0000000    
    687      1     27     41   1.0000000    
    688      1     27     42   1.0000000    
    689      1     27     43   1.0000000    
    690      1     27     44   1.0000000    
    691      1     27     45   1.0000000    
    692      1     27     46   1.0000000    
    693      1     27     47   1.0000000    
    694      1     27     48   1.0000000    
    695      1     27     49   1.0000000    
    696      1     27     50   1.0000000    
    697      1     27     51   1.0000000    
    698      1     28     11   1.0000000    
    699      1     28     12   1.0000000    
    700      1     28     13   1.0000000    
    701      1     28     14   1.0000000    
    702      1     28     15   1.0000000    
    703      1     28     16   1.0000000    
    704      1     28     17   1.0000000    
    705      1     28     18   1.0000000    
    706      1     28     19   1.0000000    
    707      1     28     20   1.0000000    
    708      1     28     21   1.0000000    
    709      1     28     22   1.0000000    
    710      1     28     23   1.0000000    
    711      1     28     24   1.0000000    
    712      1     28     25   1.0000000    
    713      1     28     26   1.0000000    
    714      1     28     27   1.0000000    
    715      1     28     28   1.0000000    
    716      1     28     29   1.0000000    
    717      1     28     30   1.0000000    
    718      1     28     31   1.0000000    
    719      1     28     32   1.0000000    
    720      1     28     33   1.0000000    
    721      1     28     34   1.0000000    
    722      1     28     35   1.0000000    
    723      1     28     36   1.0000000    
    724      1     28     37   1.0000000    
    725      1     28     38   1.0000000    
    726      1     28     39   1.0000000    
    727      1     28     40   1.0000000    
    728      1     28     41   1.0000000    
    729      1     28     42   1.0000000    
    730      1     28     43   1.0000000    
    731      1     28     44   1.0000000    
    732      1     28     45   1.0000000    
    733      1     28     46   1.0000000    
    734      1     28     47   1.0000000    
    735      1     28     48   1.0000000    
    736      1     28     49   1.0000000    
    737      1     28     50   1.0000000    
    738      1     28     51   1.0000000    
    739      1     29     11   1.0000000    
    740      1     29     12   1.0000000    
    741      1     29     13   1.0000000    
    742      1     29     14   1.0000000    
    743      1     29     15   1.0000000    
    744      1     29     16   1.0000000    
    745      1     29     17   1.0000000    
    746      1     29     18   1.0000000    
    747      1     29     19   1.0000000    
    748      1     29     20   1.0000000    
    749      1     29     21   1.0000000    
    750      1     29     22   1.0000000    
    751      1     29     23   1.0000000    
    752      1     29     24   1.0000000    
    753      1     29     25   1.0000000    
    754      1     29     26   1.0000000    
    755      1     29     27   1.0000000    
    756      1     29     28   1.0000000    
    757      1     29     29   1.0000000    
    758      1     29     30   1.0000000    
    759      1     29     31   1.0000000    
    760      1     29     32   1.0000000    
    761      1     29     33   1.0000000    
    762      1     29     34   1.0000000    
    763      1     29     35   1.0000000    
    764      1     29     36   1.0000000    
    765      1     29     37   1.0000000    
    766      1     29     38   1.0000000    
    767      1     29     39   1.0000000    
    768      1     29     40   1.0000000    
    769      1     29     41   1.0000000    
    770      1     29     42   1.0000000    
    771      1     29     43   1.0000000    
    772      1     29     44   1.0000000    
    773      1     29     45   1.0000000    
    774      1     29     46   1.0000000    
    775      1     29     47   1.0000000    
    776      1     29     48   1.0000000    
    777      1     29     49   1.0000000    
    778      1     29     50   1.0000000    
    779      1     29     51   1.0000000    
    780      1     30     11   1.0000000    
    781      1     30     12   1.0000000    
    782      1     30     13   1.0000000    
    783      1     30     14   1.0000000    
    784      1     30     15   1.0000000    
    785      1     30     16   1.0000000    
    786      1     30     17   1.0000000    
    787      1     30     18   1.0000000    
    788      1     30     19   1.0000000    
    789      1     30     20   1.0000000    
    790      1     30     21   1.0000000    
    791      1     30     22   1.0000000    
    792      1     30     23   1.0000000    
    793      1     30     24   1.0000000    
    794      1     30     25   1.0000000    
    795      1     30     26   1.0000000    
    796      1     30     27   1.0000000    
    797      1     30     28   1.0000000    
    798      1     30     29   1.0000000    
    799      1     30     30   1.0000000    
    800      1     30     31   1.0000000    
    801      1     30     32   1.0000000    
    802      1     30     33   1.0000000    
    803      1     30     34   1.0000000    
    804      1     30     35   1.0000000    
    805      1     30     36   1.0000000    
    806      1     30     37   1.0000000    
    807      1     30     38   1.0000000    
    808      1     30     39   1.0000000    
    809      1     30     40   1.0000000    
    810      1     30     41   1.0000000    
    811      1     30     42   1.0000000    
    812      1     30     43   1.0000000    
    813      1     30     44   1.0000000    
    814      1     30     45   1.0000000    
    815      1     30     46   1.0000000    
    816      1     30     47   1.0000000    
    817      1     30     48   1.0000000    
    818      1     30     49   1.0000000    
    819      1     30     50   1.0000000    
    820      1     30     51   1.0000000    
    821      1     31     11   1.0000000    
    822      1     31     12   1.0000000    
    823      1     31     13   1.0000000    
    824      1     31     14   1.0000000    
    825      1     31     15   1.0000000    
    826      1     31     16   1.0000000    
    827      1     31     17   1.0000000    
    828      1     31     18   1.0000000    
    829      1     31     19   1.0000000    
    830      1     31     20   1.0000000    
    831      1     31     21   1.0000000    
    832      1     31     22   1.0000000    
    833      1     31     23   1.0000000    
    834      1     31     24   1.0000000    
    835      1     31     25   1.0000000    
    836      1     31     26   1.0000000    
    837      1     31     27   1.0000000    
    838      1     31     28   1.0000000    
    839      1     31     29   1.0000000    
    840      1     31     30   1.0000000    
    841      1     31     31   1.0000000    
    842      1     31     32   1.0000000    
    843      1     31     33   1.0000000    
    844      1     31     34   1.0000000    
    845      1     31     35   1.0000000    
    846      1     31     36   1.0000000    
    847      1     31     37   1.0000000    
    848      1     31     38   1.0000000    
    849      1     31     39   1.0000000    
    850      1     31     40   1.0000000    
    851      1     31     41   1.0000000    
    852      1     31     42   1.0000000    
    853      1     31     43   1.0000000    
    854      1     31     44   1.0000000    
    855      1     31     45   1.0000000    
    856      1     31     46   1.0000000    
    857      1     31     47   1.0000000    
    858      1     31     48   1.0000000    
    859      1     31     49   1.0000000    
    860      1     31     50   1.0000000    
    861      1     31     51   1.0000000    
    862      1     32     11   1.0000000    
    863      1     32     12   1.0000000    
    864      1     32     13   1.0000000    
    865      1     32     14   1.0000000    
    866      1     32     15   1.0000000    
    867      1     32     16   1.0000000    
    868      1     32     17   1.0000000    
    869      1     32     18   1.0000000    
    870      1     32     19   1.0000000    
    871      1     32     20   1.0000000    
    872      1     32     21   1.0000000    
    873      1     32     22   1.0000000    
    874      1     32     23   1.0000000    
    875      1     32     24   1.0000000    
    876      1     32     25   1.0000000    
    877      1     32     26   1.0000000    
    878      1     32     27   1.0000000    
    879      1     32     28   1.0000000    
    880      1     32     29   1.0000000    
    881      1     32     30   1.0000000    
    882      1     32     31   1.0000000    
    883      1     32     32   1.0000000    
    884      1     32     33   1.0000000    
    885      1     32     34   1.0000000    
    886      1     32     35   1.0000000    
    887      1     32     36   1.0000000    
    888      1     32     37   1.0000000    
    889      1     32     38   1.0000000    
    890      1     32     39   1.0000000    
    891      1     32     40   1.0000000    
    892      1     32     41   1.0000000    
    893      1     32     42   1.0000000    
    894      1     32     43   1.0000000    
    895      1     32     44   1.0000000    
    896      1     32     45   1.0000000    
    897      1     32     46   1.0000000    
    898      1     32     47   1.0000000    
    899      1     32     48   1.0000000    
    900      1     32     49   1.0000000    
    901      1     32     50   1.0000000    
    902      1     32     51   1.0000000    
    903      1     33     11   1.0000000    
    904      1     33     12   1.0000000    
    905      1     33     13   1.0000000    
    906      1     33     14   1.0000000    
    907      1     33     15   1.0000000    
    908      1     33     16   1.0000000    
    909      1     33     17   1.0000000    
    910      1     33     18   1.0000000    
    911      1     33     19   1.0000000    
    912      1     33     20   1.0000000    
    913      1     33     21   1.0000000    
    914      1     33     22   1.0000000    
    915      1     33     23   1.0000000    
    916      1     33     24   1.0000000    
    917      1     33     25   1.0000000    
    918      1     33     26   1.0000000    
    919      1     33     27   1.0000000    
    920      1     33     28   1.0000000    
    921      1     33     29   1.0000000    
    922      1     33     30   1.0000000    
    923      1     33     31   1.0000000    
    924      1     33     32   1.0000000    
    925      1     33     33   1.0000000    
    926      1     33     34   1.0000000    
    927      1     33     35   1.0000000    
    928      1     33     36   1.0000000    
    929      1     33     37   1.0000000    
    930      1     33     38   1.0000000    
    931      1     33     39   1.0000000    
    932      1     33     40   1.0000000    
    933      1     33     41   1.0000000    
    934      1     33     42   1.0000000    
    935      1     33     43   1.0000000    
    936      1     33     44   1.0000000    
    937      1     33     45   1.0000000    
    938      1     33     46   1.0000000    
    939      1     33     47   1.0000000    
    940      1     33     48   1.0000000    
    941      1     33     49   1.0000000    
    942      1     33     50   1.0000000    
    943      1     33     51   1.0000000    
    944      1     34     11   1.0000000    
    945      1     34     12   1.0000000    
    946      1     34     13   1.0000000    
    947      1     34     14   1.0000000    
    948      1     34     15   1.0000000    
    949      1     34     16   1.0000000    
    950      1     34     17   1.0000000    
    951      1     34     18   1.0000000    
    952      1     34     19   1.0000000    
    953      1     34     20   1.0000000    
    954      1     34     21   1.0000000    
    955      1     34     22   1.0000000    
    956      1     34     23   1.0000000    
    957      1     34     24   1.0000000    
    958      1     34     25   1.0000000    
    959      1     34     26   1.0000000    
    960      1     34     27   1.0000000    
    961      1     34     28   1.0000000    
    962      1     34     29   1.0000000    
    963      1     34     30   1.0000000    
    964      1     34     31   1.0000000    
    965      1     34     32   1.0000000    
    966      1     34     33   1.0000000    
    967      1     34     34   1.0000000    
    968      1     34     35   1.0000000    
    969      1     34     36   1.0000000    
    970      1     34     37   1.0000000    
    971      1     34     38   1.0000000    
    972      1     34     39   1.0000000    
    973      1     34     40   1.0000000    
    974      1     34     41   1.0000000    
    975      1     34     42   1.0000000    
    976      1     34     43   1.0000000    
    977      1     34     44   1.0000000    
    978      1     34     45   1.0000000    
    979      1     34     46   1.0000000    
    980      1     34     47   1.0000000    
    981      1     34     48   1.0000000    
    982      1     34     49   1.0000000    
    983      1     34     50   1.0000000    
    984      1     34     51   1.0000000    
    985      1     35     11   1.0000000    
    986      1     35     12   1.0000000    
    987      1     35     13   1.0000000    
    988      1     35     14   1.0000000    
    989      1     35     15   1.0000000    
    990      1     35     16   1.0000000    
    991      1     35     17   1.0000000    
    992      1     35     18   1.0000000    
    993      1     35     19   1.0000000    
    994      1     35     20   1.0000000    
    995      1     35     21   1.0000000    
    996      1     35     22   1.0000000    
    997      1     35     23   1.0000000    
    998      1     35     24   1.0000000    
    999      1     35     25   1.0000000    
   1000      1     35     26   1.0000000    
   1001      1     35     27   1.0000000    
   1002      1     35     28   1.0000000    
   1003      1     35     29   1.0000000    
   1004      1     35     30   1.0000000    
   1005      1     35     31   1.0000000    
   1006      1     35     32   1.0000000    
   1007      1     35     33   1.0000000    
   1008      1     35     34   1.0000000    
   1009      1     35     35   1.0000000    
   1010      1     35     36   1.0000000    
   1011      1     35     37   1.0000000    
   1012      1     35     38   1.0000000    
   1013      1     35     39   1.0000000    
   1014      1     35     40   1.0000000    
   1015      1     35     41   1.0000000    
   1016      1     35     42   1.0000000    
   1017      1     35     43   1.0000000    
   1018      1     35     44   1.0000000    
   1019      1     35     45   1.0000000    
   1020      1     35     46   1.0000000    
   1021      1     35     47   1.0000000    
   1022      1     35     48   1.0000000    
   1023      1     35     49   1.0000000    
   1024      1     35     50   1.0000000    
   1025      1     35     51   1.0000000    
   1026      1     36     11   1.0000000    
   1027      1     36     12   1.0000000    
   1028      1     36     13   1.0000000    
   1029      1     36     14   1.0000000    
   1030      1     36     15   1.0000000    
   1031      1     36     16   1.0000000    
   1032      1     36     17   1.0000000    
   1033      1     36     18   1.0000000    
   1034      1     36     19   1.0000000    
   1035      1     36     20   1.0000000    
   1036      1     36     21   1.0000000    
   1037      1     36     22   1.0000000    
   1038      1     36     23   1.0000000    
   1039      1     36     24   1.0000000    
   1040      1     36     25   1.0000000    
   1041      1     36     26   1.0000000    
   1042      1     36     27   1.0000000    
   1043      1     36     28   1.0000000    
   1044      1     36     29   1.0000000    
   1045      1     36     30   1.0000000    
   1046      1     36     31   1.0000000    
   1047      1     36     32   1.0000000    
   1048      1     36     33   1.0000000    
   1049      1     36     34   1.0000000    
   1050      1     36     35   1.0000000    
   1051      1     36     36   1.0000000    
   1052      1     36     37   1.0000000    
   1053      1     36     38   1.0000000    
   1054      1     36     39   1.0000000    
   1055      1     36     40   1.0000000    
   1056      1     36     41   1.0000000    
   1057      1     36     42   1.0000000    
   1058      1     36     43   1.0000000    
   1059      1     36     44   1.0000000    
   1060      1     36     45   1.0000000    
   1061      1     36     46   1.0000000    
   1062      1     36     47   1.0000000    
   1063      1     36     48   1.0000000    
   1064      1     36     49   1.0000000    
   1065      1     36     50   1.0000000    
   1066      1     36     51   1.0000000    
   1067      1     37     11   1.0000000    
   1068      1     37     12   1.0000000    
   1069      1     37     13   1.0000000    
   1070      1     37     14   1.0000000    
   1071      1     37     15   1.0000000    
   1072      1     37     16   1.0000000    
   1073      1     37     17   1.0000000    
   1074      1     37     18   1.0000000    
   1075      1     37     19   1.0000000    
   1076      1     37     20   1.0000000    
   1077      1     37     21   1.0000000    
   1078      1     37     22   1.0000000    
   1079      1     37     23   1.0000000    
   1080      1     37     24   1.0000000    
   1081      1     37     25   1.0000000    
   1082      1     37     26   1.0000000    
   1083      1     37     27   1.0000000    
   1084      1     37     28   1.0000000    
   1085      1     37     29   1.0000000    
   1086      1     37     30   1.0000000    
   1087      1     37     31   1.0000000    
   1088      1     37     32   1.0000000    
   1089      1     37     33   1.0000000    
   1090      1     37     34   1.0000000    
   1091      1     37     35   1.0000000    
   1092      1     37     36   1.0000000    
   1093      1     37     37   1.0000000    
   1094      1     37     38   1.0000000    
   1095      1     37     39   1.0000000    
   1096      1     37     40   1.0000000    
   1097      1     37     41   1.0000000    
   1098      1     37     42   1.0000000    
   1099      1     37     43   1.0000000    
   1100      1     37     44   1.0000000    
   1101      1     37     45   1.0000000    
   1102      1     37     46   1.0000000    
   1103      1     37     47   1.0000000    
   1104      1     37     48   1.0000000    
   1105      1     37     49   1.0000000    
   1106      1     37     50   1.0000000    
   1107      1     37     51   1.0000000    
   1108      1     38     11   1.0000000    
   1109      1     38     12   1.0000000    
   1110      1     38     13   1.0000000    
   1111      1     38     14   1.0000000    
   1112      1     38     15   1.0000000    
   1113      1     38     16   1.0000000    
   1114      1     38     17   1.0000000    
   1115      1     38     18   1.0000000    
   1116      1     38     19   1.0000000    
   1117      1     38     20   1.0000000    
   1118      1     38     21   1.0000000    
   1119      1     38     22   1.0000000    
   1120      1     38     23   1.0000000    
   1121      1     38     24   1.0000000    
   1122      1     38     25   1.0000000    
   1123      1     38     26   1.0000000    
   1124      1     38     27   1.0000000    
   1125      1     38     28   1.0000000    
   1126      1     38     29   1.0000000    
   1127      1     38     30   1.0000000    
   1128      1     38     31   1.0000000    
   1129      1     38     32   1.0000000    
   1130      1     38     33   1.0000000    
   1131      1     38     34   1.0000000    
   1132      1     38     35   1.0000000    
   1133      1     38     36   1.0000000    
   1134      1     38     37   1.0000000    
   1135      1     38     38   1.0000000    
   1136      1     38     39   1.0000000    
   1137      1     38     40   1.0000000    
   1138      1     38     41   1.0000000    
   1139      1     38     42   1.0000000    
   1140      1     38     43   1.0000000    
   1141      1     38     44   1.0000000    
   1142      1     38     45   1.0000000    
   1143      1     38     46   1.0000000    
   1144      1     38     47   1.0000000    
   1145      1     38     48   1.0000000    
   1146      1     38     49   1.0000000    
   1147      1     38     50   1.0000000    
   1148      1     38     51   1.0000000    
   1149      1     39     11   1.0000000    
   1150      1     39     12   1.0000000    
   1151      1     39     13   1.0000000    
   1152      1     39     14   1.0000000    
   1153      1     39     15   1.0000000    
   1154      1     39     16   1.0000000    
   1155      1     39     17   1.0000000    
   1156      1     39     18   1.0000000    
   1157      1     39     19   1.0000000    
   1158      1     39     20   1.0000000    
   1159      1     39     21   1.0000000    
   1160      1     39     22   1.0000000    
   1161      1     39     23   1.0000000    
   1162      1     39     24   1.0000000    
   1163      1     39     25   1.0000000    
   1164      1     39     26   1.0000000    
   1165      1     39     27   1.0000000    
   1166      1     39     28   1.0000000    
   1167      1     39     29   1.0000000    
   1168      1     39     30   1.0000000    
   1169      1     39     31   1.0000000    
   1170      1     39     32   1.0000000    
   1171      1     39     33   1.0000000    
   1172      1     39     34   1.0000000    
   1173      1     39     35   1.0000000    
   1174      1     39     36   1.0000000    
   1175      1     39     37   1.0000000    
   1176      1     39     38   1.0000000    
   1177      1     39     39   1.0000000    
   1178      1     39     40   1.0000000    
   1179      1     39     41   1.0000000    
   1180      1     39     42   1.0000000    
   1181      1     39     43   1.0000000    
   1182      1     39     44   1.0000000    
   1183      1     39     45   1.0000000    
   1184      1     39     46   1.0000000    
   1185      1     39     47   1.0000000    
   1186      1     39     48   1.0000000    
   1187      1     39     49   1.0000000    
   1188      1     39     50   1.0000000    
   1189      1     39     51   1.0000000    
   1190      1     40     11   1.0000000    
   1191      1     40     12   1.0000000    
   1192      1     40     13   1.0000000    
   1193      1     40     14   1.0000000    
   1194      1     40     15   1.0000000    
   1195      1     40     16   1.0000000    
   1196      1     40     17   1.0000000    
   1197      1     40     18   1.0000000    
   1198      1     40     19   1.0000000    
   1199      1     40     20   1.0000000    
   1200      1     40     21   1.0000000    
   1201      1     40     22   1.0000000    
   1202      1     40     23   1.0000000    
   1203      1     40     24   1.0000000    
   1204      1     40     25   1.0000000    
   1205      1     40     26   1.0000000    
   1206      1     40     27   1.0000000    
   1207      1     40     28   1.0000000    
   1208      1     40     29   1.0000000    
   1209      1     40     30   1.0000000    
   1210      1     40     31   1.0000000    
   1211      1     40     32   1.0000000    
   1212      1     40     33   1.0000000    
   1213      1     40     34   1.0000000    
   1214      1     40     35   1.0000000    
   1215      1     40     36   1.0000000    
   1216      1     40     37   1.0000000    
   1217      1     40     38   1.0000000    
   1218      1     40     39   1.0000000    
   1219      1     40     40   1.0000000    
   1220      1     40     41   1.0000000    
   1221      1     40     42   1.0000000    
   1222      1     40     43   1.0000000    
   1223      1     40     44   1.0000000    
   1224      1     40     45   1.0000000    
   1225      1     40     46   1.0000000    
   1226      1     40     47   1.0000000    
   1227      1     40     48   1.0000000    
   1228      1     40     49   1.0000000    
   1229      1     40     50   1.0000000    
   1230      1     40     51   1.0000000    
   1231      1     41     11   1.0000000    
   1232      1     41     12   1.0000000    
   1233      1     41     13   1.0000000    
   1234      1     41     14   1.0000000    
   1235      1     41     15   1.0000000    
   1236      1     41     16   1.0000000    
   1237      1     41     17   1.0000000    
   1238      1     41     18   1.0000000    
   1239      1     41     19   1.0000000    
   1240      1     41     20   1.0000000    
   1241      1     41     21   1.0000000    
   1242      1     41     22   1.0000000    
   1243      1     41     23   1.0000000    
   1244      1     41     24   1.0000000    
   1245      1     41     25   1.0000000    
   1246      1     41     26   1.0000000    
   1247      1     41     27   1.0000000    
   1248      1     41     28   1.0000000    
   1249      1     41     29   1.0000000    
   1250      1     41     30   1.0000000    
   1251      1     41     31   1.0000000    
   1252      1     41     32   1.0000000    
   1253      1     41     33   1.0000000    
   1254      1     41     34   1.0000000    
   1255      1     41     35   1.0000000    
   1256      1     41     36   1.0000000    
   1257      1     41     37   1.0000000    
   1258      1     41     38   1.0000000    
   1259      1     41     39   1.0000000    
   1260      1     41     40   1.0000000    
   1261      1     41     41   1.0000000    
   1262      1     41     42   1.0000000    
   1263      1     41     43   1.0000000    
   1264      1     41     44   1.0000000    
   1265      1     41     45   1.0000000    
   1266      1     41     46   1.0000000    
   1267      1     41     47   1.0000000    
   1268      1     41     48   1.0000000    
   1269      1     41     49   1.0000000    
   1270      1     41     50   1.0000000    
   1271      1     41     51   1.0000000    
   1272      1     42     11   1.0000000    
   1273      1     42     12   1.0000000    
   1274      1     42     13   1.0000000    
   1275      1     42     14   1.0000000    
   1276      1     42     15   1.0000000    
   1277      1     42     16   1.0000000    
   1278      1     42     17   1.0000000    
   1279      1     42     18   1.0000000    
   1280      1     42     19   1.0000000    
   1281      1     42     20   1.0000000    
   1282      1     42     21   1.0000000    
   1283      1     42     22   1.0000000    
   1284      1     42     23   1.0000000    
   1285      1     42     24   1.0000000    
   1286      1     42     25   1.0000000    
   1287      1     42     26   1.0000000    
   1288      1     42     27   1.0000000    
   1289      1     42     28   1.0000000    
   1290      1     42     29   1.0000000    
   1291      1     42     30   1.0000000    
   1292      1     42     31   1.0000000    
   1293      1     42     32   1.0000000    
   1294      1     42     33   1.0000000    
   1295      1     42     34   1.0000000    
   1296      1     42     35   1.0000000    
   1297      1     42     36   1.0000000    
   1298      1     42     37   1.0000000    
   1299      1     42     38   1.0000000    
   1300      1     42     39   1.0000000    
   1301      1     42     40   1.0000000    
   1302      1     42     41   1.0000000    
   1303      1     42     42   1.0000000    
   1304      1     42     43   1.0000000    
   1305      1     42     44   1.0000000    
   1306      1     42     45   1.0000000    
   1307      1     42     46   1.0000000    
   1308      1     42     47   1.0000000    
   1309      1     42     48   1.0000000    
   1310      1     42     49   1.0000000    
   1311      1     42     50   1.0000000    
   1312      1     42     51   1.0000000    
   1313      1     43     11   1.0000000    
   1314      1     43     12   1.0000000    
   1315      1     43     13   1.0000000    
   1316      1     43     14   1.0000000    
   1317      1     43     15   1.0000000    
   1318      1     43     16   1.0000000    
   1319      1     43     17   1.0000000    
   1320      1     43     18   1.0000000    
   1321      1     43     19   1.0000000    
   1322      1     43     20   1.0000000    
   1323      1     43     21   1.0000000    
   1324      1     43     22   1.0000000    
   1325      1     43     23   1.0000000    
   1326      1     43     24   1.0000000    
   1327      1     43     25   1.0000000    
   1328      1     43     26   1.0000000    
   1329      1     43     27   1.0000000    
   1330      1     43     28   1.0000000    
   1331      1     43     29   1.0000000    
   1332      1     43     30   1.0000000    
   1333      1     43     31   1.0000000    
   1334      1     43     32   1.0000000    
   1335      1     43     33   1.0000000    
   1336      1     43     34   1.0000000    
   1337      1     43     35   1.0000000    
   1338      1     43     36   1.0000000    
   1339      1     43     37   1.0000000    
   1340      1     43     38   1.0000000    
   1341      1     43     39   1.0000000    
   1342      1     43     40   1.0000000    
   1343      1     43     41   1.0000000    
   1344      1     43     42   1.0000000    
   1345      1     43     43   1.0000000    
   1346      1     43     44   1.0000000    
   1347      1     43     45   1.0000000    
   1348      1     43     46   1.0000000    
   1349      1     43     47   1.0000000    
   1350      1     43     48   1.0000000    
   1351      1     43     49   1.0000000    
   1352      1     43     50   1.0000000    
   1353      1     43     51   1.0000000    
   1354      1     44     11   1.0000000    
   1355      1     44     12   1.0000000    
   1356      1     44     13   1.0000000    
   1357      1     44     14   1.0000000    
   1358      1     44     15   1.0000000    
   1359      1     44     16   1.0000000    
   1360      1     44     17   1.0000000    
   1361      1     44     18   1.0000000    
   1362      1     44     19   1.0000000    
   1363      1     44     20   1.0000000    
   1364      1     44     21   1.0000000    
   1365      1     44     22   1.0000000    
   1366      1     44     23   1.0000000    
   1367      1     44     24   1.0000000    
   1368      1     44     25   1.0000000    
   1369      1     44     26   1.0000000    
   1370      1     44     27   1.0000000    
   1371      1     44     28   1.0000000    
   1372      1     44     29   1.0000000    
   1373      1     44     30   1.0000000    
   1374      1     44     31   1.0000000    
   1375      1     44     32   1.0000000    
   1376      1     44     33   1.0000000    
   1377      1     44     34   1.0000000    
   1378      1     44     35   1.0000000    
   1379      1     44     36   1.0000000    
   1380      1     44     37   1.0000000    
   1381      1     44     38   1.0000000    
   1382      1     44     39   1.0000000    
   1383      1     44     40   1.0000000    
   1384      1     44     41   1.0000000    
   1385      1     44     42   1.0000000    
   1386      1     44     43   1.0000000    
   1387      1     44     44   1.0000000    
   1388      1     44     45   1.0000000    
   1389      1     44     46   1.0000000    
   1390      1     44     47   1.0000000    
   1391      1     44     48   1.0000000    
   1392      1     44     49   1.0000000    
   1393      1     44     50   1.0000000    
   1394      1     44     51   1.0000000    
   1395      1     45     11   1.0000000    
   1396      1     45     12   1.0000000    
   1397      1     45     13   1.0000000    
   1398      1     45     14   1.0000000    
   1399      1     45     15   1.0000000    
   1400      1     45     16   1.0000000    
   1401      1     45     17   1.0000000    
   1402      1     45     18   1.0000000    
   1403      1     45     19   1.0000000    
   1404      1     45     20   1.0000000    
   1405      1     45     21   1.0000000    
   1406      1     45     22   1.0000000    
   1407      1     45     23   1.0000000    
   1408      1     45     24   1.0000000    
   1409      1     45     25   1.0000000    
   1410      1     45     26   1.0000000    
   1411      1     45     27   1.0000000    
   1412      1     45     28   1.0000000    
   1413      1     45     29   1.0000000    
   1414      1     45     30   1.0000000    
   1415      1     45     31   1.0000000    
   1416      1     45     32   1.0000000    
   1417      1     45     33   1.0000000    
   1418      1     45     34   1.0000000    
   1419      1     45     35   1.0000000    
   1420      1     45     36   1.0000000    
   1421      1     45     37   1.0000000    
   1422      1     45     38   1.0000000    
   1423      1     45     39   1.0000000    
   1424      1     45     40   1.0000000    
   1425      1     45     41   1.0000000    
   1426      1     45     42   1.0000000    
   1427      1     45     43   1.0000000    
   1428      1     45     44   1.0000000    
   1429      1     45     45   1.0000000    
   1430      1     45     46   1.0000000    
   1431      1     45     47   1.0000000    
   1432      1     45     48   1.0000000    
   1433      1     45     49   1.0000000    
   1434      1     45     50   1.0000000    
   1435      1     45     51   1.0000000    
   1436      1     46     11   1.0000000    
   1437      1     46     12   1.0000000    
   1438      1     46     13   1.0000000    
   1439      1     46     14   1.0000000    
   1440      1     46     15   1.0000000    
   1441      1     46     16   1.0000000    
   1442      1     46     17   1.0000000    
   1443      1     46     18   1.0000000    
   1444      1     46     19   1.0000000    
   1445      1     46     20   1.0000000    
   1446      1     46     21   1.0000000    
   1447      1     46     22   1.0000000    
   1448      1     46     23   1.0000000    
   1449      1     46     24   1.0000000    
   1450      1     46     25   1.0000000    
   1451      1     46     26   1.0000000    
   1452      1     46     27   1.0000000    
   1453      1     46     28   1.0000000    
   1454      1     46     29   1.0000000    
   1455      1     46     30   1.0000000    
   1456      1     46     31   1.0000000    
   1457      1     46     32   1.0000000    
   1458      1     46     33   1.0000000    
   1459      1     46     34   1.0000000    
   1460      1     46     35   1.0000000    
   1461      1     46     36   1.0000000    
   1462      1     46     37   1.0000000    
   1463      1     46     38   1.0000000    
   1464      1     46     39   1.0000000    
   1465      1     46     40   1.0000000    
   1466      1     46     41   1.0000000    
   1467      1     46     42   1.0000000    
   1468      1     46     43   1.0000000    
   1469      1     46     44   1.0000000    
   1470      1     46     45   1.0000000    
   1471      1     46     46   1.0000000    
   1472      1     46     47   1.0000000    
   1473      1     46     48   1.0000000    
   1474      1     46     49   1.0000000    
   1475      1     46     50   1.0000000    
   1476      1     46     51   1.0000000    
   1477      1     47     11   1.0000000    
   1478      1     47     12   1.0000000    
   1479      1     47     13   1.0000000    
   1480      1     47     14   1.0000000    
   1481      1     47     15   1.0000000    
   1482      1     47     16   1.0000000    
   1483      1     47     17   1.0000000    
   1484      1     47     18   1.0000000    
   1485      1     47     19   1.0000000    
   1486      1     47     20   1.0000000    
   1487      1     47     21   1.0000000    
   1488      1     47     22   1.0000000    
   1489      1     47     23   1.0000000    
   1490      1     47     24   1.0000000    
   1491      1     47     25   1.0000000    
   1492      1     47     26   1.0000000    
   1493      1     47     27   1.0000000    
   1494      1     47     28   1.0000000    
   1495      1     47     29   1.0000000    
   1496      1     47     30   1.0000000    
   1497      1     47     31   1.0000000    
   1498      1     47     32   1.0000000    
   1499      1     47     33   1.0000000    
   1500      1     47     34   1.0000000    
   1501      1     47     35   1.0000000    
   1502      1     47     36   1.0000000    
   1503      1     47     37   1.0000000    
   1504      1     47     38   1.0000000    
   1505      1     47     39   1.0000000    
   1506      1     47     40   1.0000000    
   1507      1     47     41   1.0000000    
   1508      1     47     42   1.0000000    
   1509      1     47     43   1.0000000    
   1510      1     47     44   1.0000000    
   1511      1     47     45   1.0000000    
   1512      1     47     46   1.0000000    
   1513      1     47     47   1.0000000    
   1514      1     47     48   1.0000000    
   1515      1     47     49   1.0000000    
   1516      1     47     50   1.0000000    
   1517      1     47     51   1.0000000    
   1518      1     48     11   1.0000000    
   1519      1     48     12   1.0000000    
   1520      1     48     13   1.0000000    
   1521      1     48     14   1.0000000    
   1522      1     48     15   1.0000000    
   1523      1     48     16   1.0000000    
   1524      1     48     17   1.0000000    
   1525      1     48     18   1.0000000    
   1526      1     48     19   1.0000000    
   1527      1     48     20   1.0000000    
   1528      1     48     21   1.0000000    
   1529      1     48     22   1.0000000    
   1530      1     48     23   1.0000000    
   1531      1     48     24   1.0000000    
   1532      1     48     25   1.0000000    
   1533      1     48     26   1.0000000    
   1534      1     48     27   1.0000000    
   1535      1     48     28   1.0000000    
   1536      1     48     29   1.0000000    
   1537      1     48     30   1.0000000    
   1538      1     48     31   1.0000000    
   1539      1     48     32   1.0000000    
   1540      1     48     33   1.0000000    
   1541      1     48     34   1.0000000    
   1542      1     48     35   1.0000000    
   1543      1     48     36   1.0000000    
   1544      1     48     37   1.0000000    
   1545      1     48     38   1.0000000    
   1546      1     48     39   1.0000000    
   1547      1     48     40   1.0000000    
   1548      1     48     41   1.0000000    
   1549      1     48     42   1.0000000    
   1550      1     48     43   1.0000000    
   1551      1     48     44   1.0000000    
   1552      1     48     45   1.0000000    
   1553      1     48     46   1.0000000    
   1554      1     48     47   1.0000000    
   1555      1     48     48   1.0000000    
   1556      1     48     49   1.0000000    
   1557      1     48     50   1.0000000    
   1558      1     48     51   1.0000000    
   1559      1     49     11   1.0000000    
   1560      1     49     12   1.0000000    
   1561      1     49     13   1.0000000    
   1562      1     49     14   1.0000000    
   1563      1     49     15   1.0000000    
   1564      1     49     16   1.0000000    
   1565      1     49     17   1.0000000    
   1566      1     49     18   1.0000000    
   1567      1     49     19   1.0000000    
   1568      1     49     20   1.0000000    
   1569      1     49     21   1.0000000    
   1570      1     49     22   1.0000000    
   1571      1     49     23   1.0000000    
   1572      1     49     24   1.0000000    
   1573      1     49     25   1.0000000    
   1574      1     49     26   1.0000000    
   1575      1     49     27   1.0000000    
   1576      1     49     28   1.0000000    
   1577      1     49     29   1.0000000    
   1578      1     49     30   1.0000000    
   1579      1     49     31   1.0000000    
   1580      1     49     32   1.0000000    
   1581      1     49     33   1.0000000    
   1582      1     49     34   1.0000000    
   1583      1     49     35   1.0000000    
   1584      1     49     36   1.0000000    
   1585      1     49     37   1.0000000    
   1586      1     49     38   1.0000000    
   1587      1     49     39   1.0000000    
   1588      1     49     40   1.0000000    
   1589      1     49     41   1.0000000    
   1590      1     49     42   1.0000000    
   1591      1     49     43   1.0000000    
   1592      1     49     44   1.0000000    
   1593      1     49     45   1.0000000    
   1594      1     49     46   1.0000000    
   1595      1     49     47   1.0000000    
   1596      1     49     48   1.0000000    
   1597      1     49     49   1.0000000    
   1598      1     49     50   1.0000000    
   1599      1     49     51   1.0000000    
   1600      1     50     11   1.0000000    
   1601      1     50     12   1.0000000    
   1602      1     50     13   1.0000000    
   1603      1     50     14   1.0000000    
   1604      1     50     15   1.0000000    
   1605      1     50     16   1.0000000    
   1606      1     50     17   1.0000000    
   1607      1     50     18   1.0000000    
   1608      1     50     19   1.0000000    
   1609      1     50     20   1.0000000    
   1610      1     50     21   1.0000000    
   1611      1     50     22   1.0000000    
   1612      1     50     23   1.0000000    
   1613      1     50     24   1.0000000    
   1614      1     50     25   1.0000000    
   1615      1     50     26   1.0000000    
   1616      1     50     27   1.0000000    
   1617      1     50     28   1.0000000    
   1618      1     50     29   1.0000000    
   1619      1     50     30   1.0000000    
   1620      1     50     31   1.0000000    
   1621      1     50     32   1.0000000    
   1622      1     50     33   1.0000000    
   1623      1     50     34   1.0000000    
   1624      1     50     35   1.0000000    
   1625      1     50     36   1.0000000    
   1626      1     50     37   1.0000000    
   1627      1     50     38   1.0000000    
   1628      1     50     39   1.0000000    
   1629      1     50     40   1.0000000    
   1630      1     50     41   1.0000000    
   1631      1     50     42   1.0000000    
   1632      1     50     43   1.0000000    
   1633      1     50     44   1.0000000    
   1634      1     50     45   1.0000000    
   1635      1     50     46   1.0000000    
   1636      1     50     47   1.0000000    
   1637      1     50     48   1.0000000    
   1638      1     50     49   1.0000000    
   1639      1     50     50   1.0000000    
   1640      1     50     51   1.0000000    
   1641      1     51     11   1.0000000    
   1642      1     51     12   1.0000000    
   1643      1     51     13   1.0000000    
   1644      1     51     14   1.0000000    
   1645      1     51     15   1.0000000    
   1646      1     51     16   1.0000000    
   1647      1     51     17   1.0000000    
   1648      1     51     18   1.0000000    
   1649      1     51     19   1.0000000    
   1650      1     51     20   1.0000000    
   1651      1     51     21   1.0000000    
   1652      1     51     22   1.0000000    
   1653      1     51     23   1.0000000    
   1654      1     51     24   1.0000000    
   1655      1     51     25   1.0000000    
   1656      1     51     26   1.0000000    
   1657      1     51     27   1.0000000    
   1658      1     51     28   1.0000000    
   1659      1     51     29   1.0000000    
   1660      1     51     30   1.0000000    
   1661      1     51     31   1.0000000    
   1662      1     51     32   1.0000000    
   1663      1     51     33   1.0000000    
   1664      1     51     34   1.0000000    
   1665      1     51     35   1.0000000    
   1666      1     51     36   1.0000000    
   1667      1     51     37   1.0000000    
   1668      1     51     38   1.0000000    
   1669      1     51     39   1.0000000    
   1670      1     51     40   1.0000000    
   1671      1     51     41   1.0000000    
   1672      1     51     42   1.0000000    
   1673      1     51     43   1.0000000    
   1674      1     51     44   1.0000000    
   1675      1     51     45   1.0000000    
   1676      1     51     46   1.0000000    
   1677      1     51     47   1.0000000    
   1678      1     51     48   1.0000000    
   1679      1     51     49   1.0000000    
   1680      1     51     50   1.0000000    
   1681      1     51     51   1.0000000    
   1682      1     31     36   0.0000000    
   1683      2     31     36   0.0000000    

1683 WELLS

 GHB PACKAGE STRESS PERIOD INFORMATION [BEFORE APPLICATION OF TABFILES]

 BOUND. NO. LAYER   ROW   COL     BHEAD      CONDUCTANCE         
 ----------------------------------------------------------------
      1      1      1      1   0.0000000       62.500000    
      2      1      1      2   0.0000000       62.500000    
      3      1      1      3   0.0000000       62.500000    
      4      1      1      4   0.0000000       62.500000    
      5      1      1      5   0.0000000       62.500000    
      6      1      1      6   0.0000000       62.500000    
      7      1      1      7   0.0000000       62.500000    
      8      1      1      8   0.0000000       62.500000    
      9      1      1      9   0.0000000       62.500000    
     10      1      1     10   0.0000000       62.500000    
     11      1      1     11   0.0000000       62.500000    
     12      1      1     12   0.0000000       62.500000    
     13      1      1     13   0.0000000       62.500000    
     14      1      1     14   0.0000000       62.500000    
     15      1      1     15   0.0000000       62.500000    
     16      1      1     16   0.0000000       62.500000    
     17      1      1     17   0.0000000       62.500000    
     18      1      1     18   0.0000000       62.500000    
     19      1      1     19   0.0000000       62.500000    
     20      1      1     20   0.0000000       62.500000    
     21      1      1     21   0.0000000       62.500000    
     22      1      1     22   0.0000000       62.500000    
     23      1      1     23   0.0000000       62.500000    
     24      1      1     24   0.0000000       62.500000    
     25      1      1     25   0.0000000       62.500000    
     26      1      1     26   0.0000000       62.500000    
     27      1      1     27   0.0000000       62.500000    
     28      1      1     28   0.0000000       62.500000    
     29      1      1     29   0.0000000       62.500000    
     30      1      1     30   0.0000000       62.500000    
     31      1      1     31   0.0000000       62.500000    
     32      1      1     32   0.0000000       62.500000    
     33      1      1     33   0.0000000       62.500000    
     34      1      1     34   0.0000000       62.500000    
     35      1      1     35   0.0000000       62.500000    
     36      1      1     36   0.0000000       62.500000    
     37      1      1     37   0.0000000       62.500000    
     38      1      1     38   0.0000000       62.500000    
     39      1      1     39   0.0000000       62.500000    
     40      1      1     40   0.0000000       62.500000    
     41      1      1     41   0.0000000       62.500000    
     42      1      1     42   0.0000000       62.500000    
     43      1      1     43   0.0000000       62.500000    
     44      1      1     44   0.0000000       62.500000    
     45      1      1     45   0.0000000       62.500000    
     46      1      1     46   0.0000000       62.500000    
     47      1      1     47   0.0000000       62.500000    
     48      1      1     48   0.0000000       62.500000    
     49      1      1     49   0.0000000       62.500000    
     50      1      1     50   0.0000000       62.500000    
     51      1      1     51   0.0000000       62.500000    
     52      1      1     52   0.0000000       62.500000    
     53      1      1     53   0.0000000       62.500000    
     54      1      1     54   0.0000000       62.500000    
     55      1      1     55   0.0000000       62.500000    
     56      1      1     56   0.0000000       62.500000    
     57      1      1     57   0.0000000       62.500000    
     58      1      1     58   0.0000000       62.500000    
     59      1      1     59   0.0000000       62.500000    
     60      1      1     60   0.0000000       62.500000    
     61      1      1     61   0.0000000       62.500000    
     62      1      2      1   0.0000000       62.500000    
     63      1      2      2   0.0000000       62.500000    
     64      1      2      3   0.0000000       62.500000    
     65      1      2      4   0.0000000       62.500000    
     66      1      2      5   0.0000000       62.500000    
     67      1      2      6   0.0000000       62.500000    
     68      1      2      7   0.0000000       62.500000    
     69      1      2      8   0.0000000       62.500000    
     70      1      2      9   0.0000000       62.500000    
     71      1      2     10   0.0000000       62.500000    
     72      1      2     11   0.0000000       62.500000    
     73      1      2     12   0.0000000       62.500000    
     74      1      2     13   0.0000000       62.500000    
     75      1      2     14   0.0000000       62.500000    
     76      1      2     15   0.0000000       62.500000    
     77      1      2     16   0.0000000       62.500000    
     78      1      2     17   0.0000000       62.500000    
     79      1      2     18   0.0000000       62.500000    
     80      1      2     19   0.0000000       62.500000    
     81      1      2     20   0.0000000       62.500000    
     82      1      2     21   0.0000000       62.500000    
     83      1      2     22   0.0000000       62.500000    
     84      1      2     23   0.0000000       62.500000    
     85      1      2     24   0.0000000       62.500000    
     86      1      2     25   0.0000000       62.500000    
     87      1      2     26   0.0000000       62.500000    
     88      1      2     27   0.0000000       62.500000    
     89      1      2     28   0.0000000       62.500000    
     90      1      2     29   0.0000000       62.500000    
     91      1      2     30   0.0000000       62.500000    
     92      1      2     31   0.0000000       62.500000    
     93      1      2     32   0.0000000       62.500000    
     94      1      2     33   0.0000000       62.500000    
     95      1      2     34   0.0000000       62.500000    
     96      1      2     35   0.0000000       62.500000    
     97      1      2     36   0.0000000       62.500000    
     98      1      2     37   0.0000000       62.500000    
     99      1      2     38   0.0000000       62.500000    
    100      1      2     39   0.0000000       62.500000    
    101      1      2     40   0.0000000       62.500000    
    102      1      2     41   0.0000000       62.500000    
    103      1      2     42   0.0000000       62.500000    
    104      1      2     43   0.0000000       62.500000    
    105      1      2     44   0.0000000       62.500000    
    106      1      2     45   0.0000000       62.500000    
    107      1      2     46   0.0000000       62.500000    
    108      1      2     47   0.0000000       62.500000    
    109      1      2     48   0.0000000       62.500000    
    110      1      2     49   0.0000000       62.500000    
    111      1      2     50   0.0000000       62.500000    
    112      1      2     51   0.0000000       62.500000    
    113      1      2     52   0.0000000       62.500000    
    114      1      2     53   0.0000000       62.500000    
    115      1      2     54   0.0000000       62.500000    
    116      1      2     55   0.0000000       62.500000    
    117      1      2     56   0.0000000       62.500000    
    118      1      2     57   0.0000000       62.500000    
    119      1      2     58   0.0000000       62.500000    
    120      1      2     59   0.0000000       62.500000    
    121      1      2     60   0.0000000       62.500000    
    122      1      2     61   0.0000000       62.500000    
    123      1      3      1   0.0000000       62.500000    
    124      1      3      2   0.0000000       62.500000    
    125      1      3      3   0.0000000       62.500000    
    126      1      3      4   0.0000000       62.500000    
    127      1      3      5   0.0000000       62.500000    
    128      1      3      6   0.0000000       62.500000    
    129      1      3      7   0.0000000       62.500000    
    130      1      3      8   0.0000000       62.500000    
    131      1      3      9   0.0000000       62.500000    
    132      1      3     10   0.0000000       62.500000    
    133      1      3     11   0.0000000       62.500000    
    134      1      3     12   0.0000000       62.500000    
    135      1      3     13   0.0000000       62.500000    
    136      1      3     14   0.0000000       62.500000    
    137      1      3     15   0.0000000       62.500000    
    138      1      3     16   0.0000000       62.500000    
    139      1      3     17   0.0000000       62.500000    
    140      1      3     18   0.0000000       62.500000    
    141      1      3     19   0.0000000       62.500000    
    142      1      3     20   0.0000000       62.500000    
    143      1      3     21   0.0000000       62.500000    
    144      1      3     22   0.0000000       62.500000    
    145      1      3     23   0.0000000       62.500000    
    146      1      3     24   0.0000000       62.500000    
    147      1      3     25   0.0000000       62.500000    
    148      1      3     26   0.0000000       62.500000    
    149      1      3     27   0.0000000       62.500000    
    150      1      3     28   0.0000000       62.500000    
    151      1      3     29   0.0000000       62.500000    
    152      1      3     30   0.0000000       62.500000    
    153      1      3     31   0.0000000       62.500000    
    154      1      3     32   0.0000000       62.500000    
    155      1      3     33   0.0000000       62.500000    
    156      1      3     34   0.0000000       62.500000    
    157      1      3     35   0.0000000       62.500000    
    158      1      3     36   0.0000000       62.500000    
    159      1      3     37   0.0000000       62.500000    
    160      1      3     38   0.0000000       62.500000    
    161      1      3     39   0.0000000       62.500000    
    162      1      3     40   0.0000000       62.500000    
    163      1      3     41   0.0000000       62.500000    
    164      1      3     42   0.0000000       62.500000    
    165      1      3     43   0.0000000       62.500000    
    166      1      3     44   0.0000000       62.500000    
    167      1      3     45   0.0000000       62.500000    
    168      1      3     46   0.0000000       62.500000    
    169      1      3     47   0.0000000       62.500000    
    170      1      3     48   0.0000000       62.500000    
    171      1      3     49   0.0000000       62.500000    
    172      1      3     50   0.0000000       62.500000    
    173      1      3     51   0.0000000       62.500000    
    174      1      3     52   0.0000000       62.500000    
    175      1      3     53   0.0000000       62.500000    
    176      1      3     54   0.0000000       62.500000    
    177      1      3     55   0.0000000       62.500000    
    178      1      3     56   0.0000000       62.500000    
    179      1      3     57   0.0000000       62.500000    
    180      1      3     58   0.0000000       62.500000    
    181      1      3     59   0.0000000       62.500000    
    182      1      3     60   0.0000000       62.500000    
    183      1      3     61   0.0000000       62.500000    
    184      1      4      1   0.0000000       62.500000    
    185      1      4      2   0.0000000       62.500000    
    186      1      4      3   0.0000000       62.500000    
    187      1      4      4   0.0000000       62.500000    
    188      1      4      5   0.0000000       62.500000    
    189      1      4      6   0.0000000       62.500000    
    190      1      4      7   0.0000000       62.500000    
    191      1      4      8   0.0000000       62.500000    
    192      1      4      9   0.0000000       62.500000    
    193      1      4     10   0.0000000       62.500000    
    194      1      4     11   0.0000000       62.500000    
    195      1      4     12   0.0000000       62.500000    
    196      1      4     13   0.0000000       62.500000    
    197      1      4     14   0.0000000       62.500000    
    198      1      4     15   0.0000000       62.500000    
    199      1      4     16   0.0000000       62.500000    
    200      1      4     17   0.0000000       62.500000    
    201      1      4     18   0.0000000       62.500000    
    202      1      4     19   0.0000000       62.500000    
    203      1      4     20   0.0000000       62.500000    
    204      1      4     21   0.0000000       62.500000    
    205      1      4     22   0.0000000       62.500000    
    206      1      4     23   0.0000000       62.500000    
    207      1      4     24   0.0000000       62.500000    
    208      1      4     25   0.0000000       62.500000    
    209      1      4     26   0.0000000       62.500000    
    210      1      4     27   0.0000000       62.500000    
    211      1      4     28   0.0000000       62.500000    
    212      1      4     29   0.0000000       62.500000    
    213      1      4     30   0.0000000       62.500000    
    214      1      4     31   0.0000000       62.500000    
    215      1      4     32   0.0000000       62.500000    
    216      1      4     33   0.0000000       62.500000    
    217      1      4     34   0.0000000       62.500000    
    218      1      4     35   0.0000000       62.500000    
    219      1      4     36   0.0000000       62.500000    
    220      1      4     37   0.0000000       62.500000    
    221      1      4     38   0.0000000       62.500000    
    222      1      4     39   0.0000000       62.500000    
    223      1      4     40   0.0000000       62.500000    
    224      1      4     41   0.0000000       62.500000    
    225      1      4     42   0.0000000       62.500000    
    226      1      4     43   0.0000000       62.500000    
    227      1      4     44   0.0000000       62.500000    
    228      1      4     45   0.0000000       62.500000    
    229      1      4     46   0.0000000       62.500000    
    230      1      4     47   0.0000000       62.500000    
    231      1      4     48   0.0000000       62.500000    
    232      1      4     49   0.0000000       62.500000    
    233      1      4     50   0.0000000       62.500000    
    234      1      4     51   0.0000000       62.500000    
    235      1      4     52   0.0000000       62.500000    
    236      1      4     53   0.0000000       62.500000    
    237      1      4     54   0.0000000       62.500000    
    238      1      4     55   0.0000000       62.500000    
    239      1      4     56   0.0000000       62.500000    
    240      1      4     57   0.0000000       62.500000    
    241      1      4     58   0.0000000       62.500000    
    242      1      4     59   0.0000000       62.500000    
    243      1      4     60   0.0000000       62.500000    
    244      1      4     61   0.0000000       62.500000    
    245      1      5      1   0.0000000       62.500000    
    246      1      5      2   0.0000000       62.500000    
    247      1      5      3   0.0000000       62.500000    
    248      1      5      4   0.0000000       62.500000    
    249      1      5      5   0.0000000       62.500000    
    250      1      5      6   0.0000000       62.500000    
    251      1      5      7   0.0000000       62.500000    
    252      1      5      8   0.0000000       62.500000    
    253      1      5      9   0.0000000       62.500000    
    254      1      5     10   0.0000000       62.500000    
    255      1      5     11   0.0000000       62.500000    
    256      1      5     12   0.0000000       62.500000    
    257      1      5     13   0.0000000       62.500000    
    258      1      5     14   0.0000000       62.500000    
    259      1      5     15   0.0000000       62.500000    
    260      1      5     16   0.0000000       62.500000    
    261      1      5     17   0.0000000       62.500000    
    262      1      5     18   0.0000000       62.500000    
    263      1      5     19   0.0000000       62.500000    
    264      1      5     20   0.0000000       62.500000    
    265      1      5     21   0.0000000       62.500000    
    266      1      5     22   0.0000000       62.500000    
    267      1      5     23   0.0000000       62.500000    
    268      1      5     24   0.0000000       62.500000    
    269      1      5     25   0.0000000       62.500000    
    270      1      5     26   0.0000000       62.500000    
    271      1      5     27   0.0000000       62.500000    
    272      1      5     28   0.0000000       62.500000    
    273      1      5     29   0.0000000       62.500000    
    274      1      5     30   0.0000000       62.500000    
    275      1      5     31   0.0000000       62.500000    
    276      1      5     32   0.0000000       62.500000    
    277      1      5     33   0.0000000       62.500000    
    278      1      5     34   0.0000000       62.500000    
    279      1      5     35   0.0000000       62.500000    
    280      1      5     36   0.0000000       62.500000    
    281      1      5     37   0.0000000       62.500000    
    282      1      5     38   0.0000000       62.500000    
    283      1      5     39   0.0000000       62.500000    
    284      1      5     40   0.0000000       62.500000    
    285      1      5     41   0.0000000       62.500000    
    286      1      5     42   0.0000000       62.500000    
    287      1      5     43   0.0000000       62.500000    
    288      1      5     44   0.0000000       62.500000    
    289      1      5     45   0.0000000       62.500000    
    290      1      5     46   0.0000000       62.500000    
    291      1      5     47   0.0000000       62.500000    
    292      1      5     48   0.0000000       62.500000    
    293      1      5     49   0.0000000       62.500000    
    294      1      5     50   0.0000000       62.500000    
    295      1      5     51   0.0000000       62.500000    
    296      1      5     52   0.0000000       62.500000    
    297      1      5     53   0.0000000       62.500000    
    298      1      5     54   0.0000000       62.500000    
    299      1      5     55   0.0000000       62.500000    
    300      1      5     56   0.0000000       62.500000    
    301      1      5     57   0.0000000       62.500000    
    302      1      5     58   0.0000000       62.500000    
    303      1      5     59   0.0000000       62.500000    
    304      1      5     60   0.0000000       62.500000    
    305      1      5     61   0.0000000       62.500000    
    306      1      6      1   0.0000000       62.500000    
    307      1      6      2   0.0000000       62.500000    
    308      1      6      3   0.0000000       62.500000    
    309      1      6      4   0.0000000       62.500000    
    310      1      6      5   0.0000000       62.500000    
    311      1      6      6   0.0000000       62.500000    
    312      1      6      7   0.0000000       62.500000    
    313      1      6      8   0.0000000       62.500000    
    314      1      6      9   0.0000000       62.500000    
    315      1      6     10   0.0000000       62.500000    
    316      1      6     11   0.0000000       62.500000    
    317      1      6     12   0.0000000       62.500000    
    318      1      6     13   0.0000000       62.500000    
    319      1      6     14   0.0000000       62.500000    
    320      1      6     15   0.0000000       62.500000    
    321      1      6     16   0.0000000       62.500000    
    322      1      6     17   0.0000000       62.500000    
    323      1      6     18   0.0000000       62.500000    
    324      1      6     19   0.0000000       62.500000    
    325      1      6     20   0.0000000       62.500000    
    326      1      6     21   0.0000000       62.500000    
    327      1      6     22   0.0000000       62.500000    
    328      1      6     23   0.0000000       62.500000    
    329      1      6     24   0.0000000       62.500000    
    330      1      6     25   0.0000000       62.500000    
    331      1      6     26   0.0000000       62.500000    
    332      1      6     27   0.0000000       62.500000    
    333      1      6     28   0.0000000       62.500000    
    334      1      6     29   0.0000000       62.500000    
    335      1      6     30   0.0000000       62.500000    
    336      1      6     31   0.0000000       62.500000    
    337      1      6     32   0.0000000       62.500000    
    338      1      6     33   0.0000000       62.500000    
    339      1      6     34   0.0000000       62.500000    
    340      1      6     35   0.0000000       62.500000    
    341      1      6     36   0.0000000       62.500000    
    342      1      6     37   0.0000000       62.500000    
    343      1      6     38   0.0000000       62.500000    
    344      1      6     39   0.0000000       62.500000    
    345      1      6     40   0.0000000       62.500000    
    346      1      6     41   0.0000000       62.500000    
    347      1      6     42   0.0000000       62.500000    
    348      1      6     43   0.0000000       62.500000    
    349      1      6     44   0.0000000       62.500000    
    350      1      6     45   0.0000000       62.500000    
    351      1      6     46   0.0000000       62.500000    
    352      1      6     47   0.0000000       62.500000    
    353      1      6     48   0.0000000       62.500000    
    354      1      6     49   0.0000000       62.500000    
    355      1      6     50   0.0000000       62.500000    
    356      1      6     51   0.0000000       62.500000    
    357      1      6     52   0.0000000       62.500000    
    358      1      6     53   0.0000000       62.500000    
    359      1      6     54   0.0000000       62.500000    
    360      1      6     55   0.0000000       62.500000    
    361      1      6     56   0.0000000       62.500000    
    362      1      6     57   0.0000000       62.500000    
    363      1      6     58   0.0000000       62.500000    
    364      1      6     59   0.0000000       62.500000    
    365      1      6     60   0.0000000       62.500000    
    366      1      6     61   0.0000000       62.500000    
    367      1      7      1   0.0000000       62.500000    
    368      1      7      2   0.0000000       62.500000    
    369      1      7      3   0.0000000       62.500000    
    370      1      7      4   0.0000000       62.500000    
    371      1      7      5   0.0000000       62.500000    
    372      1      7      6   0.0000000       62.500000    
    373      1      7      7   0.0000000       62.500000    
    374      1      7      8   0.0000000       62.500000    
    375      1      7      9   0.0000000       62.500000    
    376      1      7     10   0.0000000       62.500000    
    377      1      7     11   0.0000000       62.500000    
    378      1      7     12   0.0000000       62.500000    
    379      1      7     13   0.0000000       62.500000    
    380      1      7     14   0.0000000       62.500000    
    381      1      7     15   0.0000000       62.500000    
    382      1      7     16   0.0000000       62.500000    
    383      1      7     17   0.0000000       62.500000    
    384      1      7     18   0.0000000       62.500000    
    385      1      7     19   0.0000000       62.500000    
    386      1      7     20   0.0000000       62.500000    
    387      1      7     21   0.0000000       62.500000    
    388      1      7     22   0.0000000       62.500000    
    389      1      7     23   0.0000000       62.500000    
    390      1      7     24   0.0000000       62.500000    
    391      1      7     25   0.0000000       62.500000    
    392      1      7     26   0.0000000       62.500000    
    393      1      7     27   0.0000000       62.500000    
    394      1      7     28   0.0000000       62.500000    
    395      1      7     29   0.0000000       62.500000    
    396      1      7     30   0.0000000       62.500000    
    397      1      7     31   0.0000000       62.500000    
    398      1      7     32   0.0000000       62.500000    
    399      1      7     33   0.0000000       62.500000    
    400      1      7     34   0.0000000       62.500000    
    401      1      7     35   0.0000000       62.500000    
    402      1      7     36   0.0000000       62.500000    
    403      1      7     37   0.0000000       62.500000    
    404      1      7     38   0.0000000       62.500000    
    405      1      7     39   0.0000000       62.500000    
    406      1      7     40   0.0000000       62.500000    
    407      1      7     41   0.0000000       62.500000    
    408      1      7     42   0.0000000       62.500000    
    409      1      7     43   0.0000000       62.500000    
    410      1      7     44   0.0000000       62.500000    
    411      1      7     45   0.0000000       62.500000    
    412      1      7     46   0.0000000       62.500000    
    413      1      7     47   0.0000000       62.500000    
    414      1      7     48   0.0000000       62.500000    
    415      1      7     49   0.0000000       62.500000    
    416      1      7     50   0.0000000       62.500000    
    417      1      7     51   0.0000000       62.500000    
    418      1      7     52   0.0000000       62.500000    
    419      1      7     53   0.0000000       62.500000    
    420      1      7     54   0.0000000       62.500000    
    421      1      7     55   0.0000000       62.500000    
    422      1      7     56   0.0000000       62.500000    
    423      1      7     57   0.0000000       62.500000    
    424      1      7     58   0.0000000       62.500000    
    425      1      7     59   0.0000000       62.500000    
    426      1      7     60   0.0000000       62.500000    
    427      1      7     61   0.0000000       62.500000    
    428      1      8      1   0.0000000       62.500000    
    429      1      8      2   0.0000000       62.500000    
    430      1      8      3   0.0000000       62.500000    
    431      1      8      4   0.0000000       62.500000    
    432      1      8      5   0.0000000       62.500000    
    433      1      8      6   0.0000000       62.500000    
    434      1      8      7   0.0000000       62.500000    
    435      1      8      8   0.0000000       62.500000    
    436      1      8      9   0.0000000       62.500000    
    437      1      8     10   0.0000000       62.500000    
    438      1      8     11   0.0000000       62.500000    
    439      1      8     12   0.0000000       62.500000    
    440      1      8     13   0.0000000       62.500000    
    441      1      8     14   0.0000000       62.500000    
    442      1      8     15   0.0000000       62.500000    
    443      1      8     16   0.0000000       62.500000    
    444      1      8     17   0.0000000       62.500000    
    445      1      8     18   0.0000000       62.500000    
    446      1      8     19   0.0000000       62.500000    
    447      1      8     20   0.0000000       62.500000    
    448      1      8     21   0.0000000       62.500000    
    449      1      8     22   0.0000000       62.500000    
    450      1      8     23   0.0000000       62.500000    
    451      1      8     24   0.0000000       62.500000    
    452      1      8     25   0.0000000       62.500000    
    453      1      8     26   0.0000000       62.500000    
    454      1      8     27   0.0000000       62.500000    
    455      1      8     28   0.0000000       62.500000    
    456      1      8     29   0.0000000       62.500000    
    457      1      8     30   0.0000000       62.500000    
    458      1      8     31   0.0000000       62.500000    
    459      1      8     32   0.0000000       62.500000    
    460      1      8     33   0.0000000       62.500000    
    461      1      8     34   0.0000000       62.500000    
    462      1      8     35   0.0000000       62.500000    
    463      1      8     36   0.0000000       62.500000    
    464      1      8     37   0.0000000       62.500000    
    465      1      8     38   0.0000000       62.500000    
    466      1      8     39   0.0000000       62.500000    
    467      1      8     40   0.0000000       62.500000    
    468      1      8     41   0.0000000       62.500000    
    469      1      8     42   0.0000000       62.500000    
    470      1      8     43   0.0000000       62.500000    
    471      1      8     44   0.0000000       62.500000    
    472      1      8     45   0.0000000       62.500000    
    473      1      8     46   0.0000000       62.500000    
    474      1      8     47   0.0000000       62.500000    
    475      1      8     48   0.0000000       62.500000    
    476      1      8     49   0.0000000       62.500000    
    477      1      8     50   0.0000000       62.500000    
    478      1      8     51   0.0000000       62.500000    
    479      1      8     52   0.0000000       62.500000    
    480      1      8     53   0.0000000       62.500000    
    481      1      8     54   0.0000000       62.500000    
    482      1      8     55   0.0000000       62.500000    
    483      1      8     56   0.0000000       62.500000    
    484      1      8     57   0.0000000       62.500000    
    485      1      8     58   0.0000000       62.500000    
    486      1      8     59   0.0000000       62.500000    
    487      1      8     60   0.0000000       62.500000    
    488      1      8     61   0.0000000       62.500000    
    489      1      9      1   0.0000000       62.500000    
    490      1      9      2   0.0000000       62.500000    
    491      1      9      3   0.0000000       62.500000    
    492      1      9      4   0.0000000       62.500000    
    493      1      9      5   0.0000000       62.500000    
    494      1      9      6   0.0000000       62.500000    
    495      1      9      7   0.0000000       62.500000    
    496      1      9      8   0.0000000       62.500000    
    497      1      9      9   0.0000000       62.500000    
    498      1      9     10   0.0000000       62.500000    
    499      1      9     11   0.0000000       62.500000    
    500      1      9     12   0.0000000       62.500000    
    501      1      9     13   0.0000000       62.500000    
    502      1      9     14   0.0000000       62.500000    
    503      1      9     15   0.0000000       62.500000    
    504      1      9     16   0.0000000       62.500000    
    505      1      9     17   0.0000000       62.500000    
    506      1      9     18   0.0000000       62.500000    
    507      1      9     19   0.0000000       62.500000    
    508      1      9     20   0.0000000       62.500000    
    509      1      9     21   0.0000000       62.500000    
    510      1      9     22   0.0000000       62.500000    
    511      1      9     23   0.0000000       62.500000    
    512      1      9     24   0.0000000       62.500000    
    513      1      9     25   0.0000000       62.500000    
    514      1      9     26   0.0000000       62.500000    
    515      1      9     27   0.0000000       62.500000    
    516      1      9     28   0.0000000       62.500000    
    517      1      9     29   0.0000000       62.500000    
    518      1      9     30   0.0000000       62.500000    
    519      1      9     31   0.0000000       62.500000    
    520      1      9     32   0.0000000       62.500000    
    521      1      9     33   0.0000000       62.500000    
    522      1      9     34   0.0000000       62.500000    
    523      1      9     35   0.0000000       62.500000    
    524      1      9     36   0.0000000       62.500000    
    525      1      9     37   0.0000000       62.500000    
    526      1      9     38   0.0000000       62.500000    
    527      1      9     39   0.0000000       62.500000    
    528      1      9     40   0.0000000       62.500000    
    529      1      9     41   0.0000000       62.500000    
    530      1      9     42   0.0000000       62.500000    
    531      1      9     43   0.0000000       62.500000    
    532      1      9     44   0.0000000       62.500000    
    533      1      9     45   0.0000000       62.500000    
    534      1      9     46   0.0000000       62.500000    
    535      1      9     47   0.0000000       62.500000    
    536      1      9     48   0.0000000       62.500000    
    537      1      9     49   0.0000000       62.500000    
    538      1      9     50   0.0000000       62.500000    
    539      1      9     51   0.0000000       62.500000    
    540      1      9     52   0.0000000       62.500000    
    541      1      9     53   0.0000000       62.500000    
    542      1      9     54   0.0000000       62.500000    
    543      1      9     55   0.0000000       62.500000    
    544      1      9     56   0.0000000       62.500000    
    545      1      9     57   0.0000000       62.500000    
    546      1      9     58   0.0000000       62.500000    
    547      1      9     59   0.0000000       62.500000    
    548      1      9     60   0.0000000       62.500000    
    549      1      9     61   0.0000000       62.500000    
    550      1     10      1   0.0000000       62.500000    
    551      1     10      2   0.0000000       62.500000    
    552      1     10      3   0.0000000       62.500000    
    553      1     10      4   0.0000000       62.500000    
    554      1     10      5   0.0000000       62.500000    
    555      1     10      6   0.0000000       62.500000    
    556      1     10      7   0.0000000       62.500000    
    557      1     10      8   0.0000000       62.500000    
    558      1     10      9   0.0000000       62.500000    
    559      1     10     10   0.0000000       62.500000    
    560      1     10     11   0.0000000       62.500000    
    561      1     10     12   0.0000000       62.500000    
    562      1     10     13   0.0000000       62.500000    
    563      1     10     14   0.0000000       62.500000    
    564      1     10     15   0.0000000       62.500000    
    565      1     10     16   0.0000000       62.500000    
    566      1     10     17   0.0000000       62.500000    
    567      1     10     18   0.0000000       62.500000    
    568      1     10     19   0.0000000       62.500000    
    569      1     10     20   0.0000000       62.500000    
    570      1     10     21   0.0000000       62.500000    
    571      1     10     22   0.0000000       62.500000    
    572      1     10     23   0.0000000       62.500000    
    573      1     10     24   0.0000000       62.500000    
    574      1     10     25   0.0000000       62.500000    
    575      1     10     26   0.0000000       62.500000    
    576      1     10     27   0.0000000       62.500000    
    577      1     10     28   0.0000000       62.500000    
    578      1     10     29   0.0000000       62.500000    
    579      1     10     30   0.0000000       62.500000    
    580      1     10     31   0.0000000       62.500000    
    581      1     10     32   0.0000000       62.500000    
    582      1     10     33   0.0000000       62.500000    
    583      1     10     34   0.0000000       62.500000    
    584      1     10     35   0.0000000       62.500000    
    585      1     10     36   0.0000000       62.500000    
    586      1     10     37   0.0000000       62.500000    
    587      1     10     38   0.0000000       62.500000    
    588      1     10     39   0.0000000       62.500000    
    589      1     10     40   0.0000000       62.500000    
    590      1     10     41   0.0000000       62.500000    
    591      1     10     42   0.0000000       62.500000    
    592      1     10     43   0.0000000       62.500000    
    593      1     10     44   0.0000000       62.500000    
    594      1     10     45   0.0000000       62.500000    
    595      1     10     46   0.0000000       62.500000    
    596      1     10     47   0.0000000       62.500000    
    597      1     10     48   0.0000000       62.500000    
    598      1     10     49   0.0000000       62.500000    
    599      1     10     50   0.0000000       62.500000    
    600      1     10     51   0.0000000       62.500000    
    601      1     10     52   0.0000000       62.500000    
    602      1     10     53   0.0000000       62.500000    
    603      1     10     54   0.0000000       62.500000    
    604      1     10     55   0.0000000       62.500000    
    605      1     10     56   0.0000000       62.500000    
    606      1     10     57   0.0000000       62.500000    
    607      1     10     58   0.0000000       62.500000    
    608      1     10     59   0.0000000       62.500000    
    609      1     10     60   0.0000000       62.500000    
    610      1     10     61   0.0000000       62.500000    
    611      1     11      1   0.0000000       62.500000    
    612      1     11      2   0.0000000       62.500000    
    613      1     11      3   0.0000000       62.500000    
    614      1     11      4   0.0000000       62.500000    
    615      1     11      5   0.0000000       62.500000    
    616      1     11      6   0.0000000       62.500000    
    617      1     11      7   0.0000000       62.500000    
    618      1     11      8   0.0000000       62.500000    
    619      1     11      9   0.0000000       62.500000    
    620      1     11     10   0.0000000       62.500000    
    621      1     11     52   0.0000000       62.500000    
    622      1     11     53   0.0000000       62.500000    
    623      1     11     54   0.0000000       62.500000    
    624      1     11     55   0.0000000       62.500000    
    625      1     11     56   0.0000000       62.500000    
    626      1     11     57   0.0000000       62.500000    
    627      1     11     58   0.0000000       62.500000    
    628      1     11     59   0.0000000       62.500000    
    629      1     11     60   0.0000000       62.500000    
    630      1     11     61   0.0000000       62.500000    
    631      1     12      1   0.0000000       62.500000    
    632      1     12      2   0.0000000       62.500000    
    633      1     12      3   0.0000000       62.500000    
    634      1     12      4   0.0000000       62.500000    
    635      1     12      5   0.0000000       62.500000    
    636      1     12      6   0.0000000       62.500000    
    637      1     12      7   0.0000000       62.500000    
    638      1     12      8   0.0000000       62.500000    
    639      1     12      9   0.0000000       62.500000    
    640      1     12     10   0.0000000       62.500000    
    641      1     12     52   0.0000000       62.500000    
    642      1     12     53   0.0000000       62.500000    
    643      1     12     54   0.0000000       62.500000    
    644      1     12     55   0.0000000       62.500000    
    645      1     12     56   0.0000000       62.500000    
    646      1     12     57   0.0000000       62.500000    
    647      1     12     58   0.0000000       62.500000    
    648      1     12     59   0.0000000       62.500000    
    649      1     12     60   0.0000000       62.500000    
    650      1     12     61   0.0000000       62.500000    
    651      1     13      1   0.0000000       62.500000    
    652      1     13      2   0.0000000       62.500000    
    653      1     13      3   0.0000000       62.500000    
    654      1     13      4   0.0000000       62.500000    
    655      1     13      5   0.0000000       62.500000    
    656      1     13      6   0.0000000       62.500000    
    657      1     13      7   0.0000000       62.500000    
    658      1     13      8   0.0000000       62.500000    
    659      1     13      9   0.0000000       62.500000    
    660      1     13     10   0.0000000       62.500000    
    661      1     13     52   0.0000000       62.500000    
    662      1     13     53   0.0000000       62.500000    
    663      1     13     54   0.0000000       62.500000    
    664      1     13     55   0.0000000       62.500000    
    665      1     13     56   0.0000000       62.500000    
    666      1     13     57   0.0000000       62.500000    
    667      1     13     58   0.0000000       62.500000    
    668      1     13     59   0.0000000       62.500000    
    669      1     13     60   0.0000000       62.500000    
    670      1     13     61   0.0000000       62.500000    
    671      1     14      1   0.0000000       62.500000    
    672      1     14      2   0.0000000       62.500000    
    673      1     14      3   0.0000000       62.500000    
    674      1     14      4   0.0000000       62.500000    
    675      1     14      5   0.0000000       62.500000    
    676      1     14      6   0.0000000       62.500000    
    677      1     14      7   0.0000000       62.500000    
    678      1     14      8   0.0000000       62.500000    
    679      1     14      9   0.0000000       62.500000    
    680      1     14     10   0.0000000       62.500000    
    681      1     14     52   0.0000000       62.500000    
    682      1     14     53   0.0000000       62.500000    
    683      1     14     54   0.0000000       62.500000    
    684      1     14     55   0.0000000       62.500000    
    685      1     14     56   0.0000000       62.500000    
    686      1     14     57   0.0000000       62.500000    
    687      1     14     58   0.0000000       62.500000    
    688      1     14     59   0.0000000       62.500000    
    689      1     14     60   0.0000000       62.500000    
    690      1     14     61   0.0000000       62.500000    
    691      1     15      1   0.0000000       62.500000    
    692      1     15      2   0.0000000       62.500000    
    693      1     15      3   0.0000000       62.500000    
    694      1     15      4   0.0000000       62.500000    
    695      1     15      5   0.0000000       62.500000    
    696      1     15      6   0.0000000       62.500000    
    697      1     15      7   0.0000000       62.500000    
    698      1     15      8   0.0000000       62.500000    
    699      1     15      9   0.0000000       62.500000    
    700      1     15     10   0.0000000       62.500000    
    701      1     15     52   0.0000000       62.500000    
    702      1     15     53   0.0000000       62.500000    
    703      1     15     54   0.0000000       62.500000    
    704      1     15     55   0.0000000       62.500000    
    705      1     15     56   0.0000000       62.500000    
    706      1     15     57   0.0000000       62.500000    
    707      1     15     58   0.0000000       62.500000    
    708      1     15     59   0.0000000       62.500000    
    709      1     15     60   0.0000000       62.500000    
    710      1     15     61   0.0000000       62.500000    
    711      1     16      1   0.0000000       62.500000    
    712      1     16      2   0.0000000       62.500000    
    713      1     16      3   0.0000000       62.500000    
    714      1     16      4   0.0000000       62.500000    
    715      1     16      5   0.0000000       62.500000    
    716      1     16      6   0.0000000       62.500000    
    717      1     16      7   0.0000000       62.500000    
    718      1     16      8   0.0000000       62.500000    
    719      1     16      9   0.0000000       62.500000    
    720      1     16     10   0.0000000       62.500000    
    721      1     16     52   0.0000000       62.500000    
    722      1     16     53   0.0000000       62.500000    
    723      1     16     54   0.0000000       62.500000    
    724      1     16     55   0.0000000       62.500000    
    725      1     16     56   0.0000000       62.500000    
    726      1     16     57   0.0000000       62.500000    
    727      1     16     58   0.0000000       62.500000    
    728      1     16     59   0.0000000       62.500000    
    729      1     16     60   0.0000000       62.500000    
    730      1     16     61   0.0000000       62.500000    
    731      1     17      1   0.0000000       62.500000    
    732      1     17      2   0.0000000       62.500000    
    733      1     17      3   0.0000000       62.500000    
    734      1     17      4   0.0000000       62.500000    
    735      1     17      5   0.0000000       62.500000    
    736      1     17      6   0.0000000       62.500000    
    737      1     17      7   0.0000000       62.500000    
    738      1     17      8   0.0000000       62.500000    
    739      1     17      9   0.0000000       62.500000    
    740      1     17     10   0.0000000       62.500000    
    741      1     17     52   0.0000000       62.500000    
    742      1     17     53   0.0000000       62.500000    
    743      1     17     54   0.0000000       62.500000    
    744      1     17     55   0.0000000       62.500000    
    745      1     17     56   0.0000000       62.500000    
    746      1     17     57   0.0000000       62.500000    
    747      1     17     58   0.0000000       62.500000    
    748      1     17     59   0.0000000       62.500000    
    749      1     17     60   0.0000000       62.500000    
    750      1     17     61   0.0000000       62.500000    
    751      1     18      1   0.0000000       62.500000    
    752      1     18      2   0.0000000       62.500000    
    753      1     18      3   0.0000000       62.500000    
    754      1     18      4   0.0000000       62.500000    
    755      1     18      5   0.0000000       62.500000    
    756      1     18      6   0.0000000       62.500000    
    757      1     18      7   0.0000000       62.500000    
    758      1     18      8   0.0000000       62.500000    
    759      1     18      9   0.0000000       62.500000    
    760      1     18     10   0.0000000       62.500000    
    761      1     18     52   0.0000000       62.500000    
    762      1     18     53   0.0000000       62.500000    
    763      1     18     54   0.0000000       62.500000    
    764      1     18     55   0.0000000       62.500000    
    765      1     18     56   0.0000000       62.500000    
    766      1     18     57   0.0000000       62.500000    
    767      1     18     58   0.0000000       62.500000    
    768      1     18     59   0.0000000       62.500000    
    769      1     18     60   0.0000000       62.500000    
    770      1     18     61   0.0000000       62.500000    
    771      1     19      1   0.0000000       62.500000    
    772      1     19      2   0.0000000       62.500000    
    773      1     19      3   0.0000000       62.500000    
    774      1     19      4   0.0000000       62.500000    
    775      1     19      5   0.0000000       62.500000    
    776      1     19      6   0.0000000       62.500000    
    777      1     19      7   0.0000000       62.500000    
    778      1     19      8   0.0000000       62.500000    
    779      1     19      9   0.0000000       62.500000    
    780      1     19     10   0.0000000       62.500000    
    781      1     19     52   0.0000000       62.500000    
    782      1     19     53   0.0000000       62.500000    
    783      1     19     54   0.0000000       62.500000    
    784      1     19     55   0.0000000       62.500000    
    785      1     19     56   0.0000000       62.500000    
    786      1     19     57   0.0000000       62.500000    
    787      1     19     58   0.0000000       62.500000    
    788      1     19     59   0.0000000       62.500000    
    789      1     19     60   0.0000000       62.500000    
    790      1     19     61   0.0000000       62.500000    
    791      1     20      1   0.0000000       62.500000    
    792      1     20      2   0.0000000       62.500000    
    793      1     20      3   0.0000000       62.500000    
    794      1     20      4   0.0000000       62.500000    
    795      1     20      5   0.0000000       62.500000    
    796      1     20      6   0.0000000       62.500000    
    797      1     20      7   0.0000000       62.500000    
    798      1     20      8   0.0000000       62.500000    
    799      1     20      9   0.0000000       62.500000    
    800      1     20     10   0.0000000       62.500000    
    801      1     20     52   0.0000000       62.500000    
    802      1     20     53   0.0000000       62.500000    
    803      1     20     54   0.0000000       62.500000    
    804      1     20     55   0.0000000       62.500000    
    805      1     20     56   0.0000000       62.500000    
    806      1     20     57   0.0000000       62.500000    
    807      1     20     58   0.0000000       62.500000    
    808      1     20     59   0.0000000       62.500000    
    809      1     20     60   0.0000000       62.500000    
    810      1     20     61   0.0000000       62.500000    
    811      1     21      1   0.0000000       62.500000    
    812      1     21      2   0.0000000       62.500000    
    813      1     21      3   0.0000000       62.500000    
    814      1     21      4   0.0000000       62.500000    
    815      1     21      5   0.0000000       62.500000    
    816      1     21      6   0.0000000       62.500000    
    817      1     21      7   0.0000000       62.500000    
    818      1     21      8   0.0000000       62.500000    
    819      1     21      9   0.0000000       62.500000    
    820      1     21     10   0.0000000       62.500000    
    821      1     21     52   0.0000000       62.500000    
    822      1     21     53   0.0000000       62.500000    
    823      1     21     54   0.0000000       62.500000    
    824      1     21     55   0.0000000       62.500000    
    825      1     21     56   0.0000000       62.500000    
    826      1     21     57   0.0000000       62.500000    
    827      1     21     58   0.0000000       62.500000    
    828      1     21     59   0.0000000       62.500000    
    829      1     21     60   0.0000000       62.500000    
    830      1     21     61   0.0000000       62.500000    
    831      1     22      1   0.0000000       62.500000    
    832      1     22      2   0.0000000       62.500000    
    833      1     22      3   0.0000000       62.500000    
    834      1     22      4   0.0000000       62.500000    
    835      1     22      5   0.0000000       62.500000    
    836      1     22      6   0.0000000       62.500000    
    837      1     22      7   0.0000000       62.500000    
    838      1     22      8   0.0000000       62.500000    
    839      1     22      9   0.0000000       62.500000    
    840      1     22     10   0.0000000       62.500000    
    841      1     22     52   0.0000000       62.500000    
    842      1     22     53   0.0000000       62.500000    
    843      1     22     54   0.0000000       62.500000    
    844      1     22     55   0.0000000       62.500000    
    845      1     22     56   0.0000000       62.500000    
    846      1     22     57   0.0000000       62.500000    
    847      1     22     58   0.0000000       62.500000    
    848      1     22     59   0.0000000       62.500000    
    849      1     22     60   0.0000000       62.500000    
    850      1     22     61   0.0000000       62.500000    
    851      1     23      1   0.0000000       62.500000    
    852      1     23      2   0.0000000       62.500000    
    853      1     23      3   0.0000000       62.500000    
    854      1     23      4   0.0000000       62.500000    
    855      1     23      5   0.0000000       62.500000    
    856      1     23      6   0.0000000       62.500000    
    857      1     23      7   0.0000000       62.500000    
    858      1     23      8   0.0000000       62.500000    
    859      1     23      9   0.0000000       62.500000    
    860      1     23     10   0.0000000       62.500000    
    861      1     23     52   0.0000000       62.500000    
    862      1     23     53   0.0000000       62.500000    
    863      1     23     54   0.0000000       62.500000    
    864      1     23     55   0.0000000       62.500000    
    865      1     23     56   0.0000000       62.500000    
    866      1     23     57   0.0000000       62.500000    
    867      1     23     58   0.0000000       62.500000    
    868      1     23     59   0.0000000       62.500000    
    869      1     23     60   0.0000000       62.500000    
    870      1     23     61   0.0000000       62.500000    
    871      1     24      1   0.0000000       62.500000    
    872      1     24      2   0.0000000       62.500000    
    873      1     24      3   0.0000000       62.500000    
    874      1     24      4   0.0000000       62.500000    
    875      1     24      5   0.0000000       62.500000    
    876      1     24      6   0.0000000       62.500000    
    877      1     24      7   0.0000000       62.500000    
    878      1     24      8   0.0000000       62.500000    
    879      1     24      9   0.0000000       62.500000    
    880      1     24     10   0.0000000       62.500000    
    881      1     24     52   0.0000000       62.500000    
    882      1     24     53   0.0000000       62.500000    
    883      1     24     54   0.0000000       62.500000    
    884      1     24     55   0.0000000       62.500000    
    885      1     24     56   0.0000000       62.500000    
    886      1     24     57   0.0000000       62.500000    
    887      1     24     58   0.0000000       62.500000    
    888      1     24     59   0.0000000       62.500000    
    889      1     24     60   0.0000000       62.500000    
    890      1     24     61   0.0000000       62.500000    
    891      1     25      1   0.0000000       62.500000    
    892      1     25      2   0.0000000       62.500000    
    893      1     25      3   0.0000000       62.500000    
    894      1     25      4   0.0000000       62.500000    
    895      1     25      5   0.0000000       62.500000    
    896      1     25      6   0.0000000       62.500000    
    897      1     25      7   0.0000000       62.500000    
    898      1     25      8   0.0000000       62.500000    
    899      1     25      9   0.0000000       62.500000    
    900      1     25     10   0.0000000       62.500000    
    901      1     25     52   0.0000000       62.500000    
    902      1     25     53   0.0000000       62.500000    
    903      1     25     54   0.0000000       62.500000    
    904      1     25     55   0.0000000       62.500000    
    905      1     25     56   0.0000000       62.500000    
    906      1     25     57   0.0000000       62.500000    
    907      1     25     58   0.0000000       62.500000    
    908      1     25     59   0.0000000       62.500000    
    909      1     25     60   0.0000000       62.500000    
    910      1     25     61   0.0000000       62.500000    
    911      1     26      1   0.0000000       62.500000    
    912      1     26      2   0.0000000       62.500000    
    913      1     26      3   0.0000000       62.500000    
    914      1     26      4   0.0000000       62.500000    
    915      1     26      5   0.0000000       62.500000    
    916      1     26      6   0.0000000       62.500000    
    917      1     26      7   0.0000000       62.500000    
    918      1     26      8   0.0000000       62.500000    
    919      1     26      9   0.0000000       62.500000    
    920      1     26     10   0.0000000       62.500000    
    921      1     26     52   0.0000000       62.500000    
    922      1     26     53   0.0000000       62.500000    
    923      1     26     54   0.0000000       62.500000    
    924      1     26     55   0.0000000       62.500000    
    925      1     26     56   0.0000000       62.500000    
    926      1     26     57   0.0000000       62.500000    
    927      1     26     58   0.0000000       62.500000    
    928      1     26     59   0.0000000       62.500000    
    929      1     26     60   0.0000000       62.500000    
    930      1     26     61   0.0000000       62.500000    
    931      1     27      1   0.0000000       62.500000    
    932      1     27      2   0.0000000       62.500000    
    933      1     27      3   0.0000000       62.500000    
    934      1     27      4   0.0000000       62.500000    
    935      1     27      5   0.0000000       62.500000    
    936      1     27      6   0.0000000       62.500000    
    937      1     27      7   0.0000000       62.500000    
    938      1     27      8   0.0000000       62.500000    
    939      1     27      9   0.0000000       62.500000    
    940      1     27     10   0.0000000       62.500000    
    941      1     27     52   0.0000000       62.500000    
    942      1     27     53   0.0000000       62.500000    
    943      1     27     54   0.0000000       62.500000    
    944      1     27     55   0.0000000       62.500000    
    945      1     27     56   0.0000000       62.500000    
    946      1     27     57   0.0000000       62.500000    
    947      1     27     58   0.0000000       62.500000    
    948      1     27     59   0.0000000       62.500000    
    949      1     27     60   0.0000000       62.500000    
    950      1     27     61   0.0000000       62.500000    
    951      1     28      1   0.0000000       62.500000    
    952      1     28      2   0.0000000       62.500000    
    953      1     28      3   0.0000000       62.500000    
    954      1     28      4   0.0000000       62.500000    
    955      1     28      5   0.0000000       62.500000    
    956      1     28      6   0.0000000       62.500000    
    957      1     28      7   0.0000000       62.500000    
    958      1     28      8   0.0000000       62.500000    
    959      1     28      9   0.0000000       62.500000    
    960      1     28     10   0.0000000       62.500000    
    961      1     28     52   0.0000000       62.500000    
    962      1     28     53   0.0000000       62.500000    
    963      1     28     54   0.0000000       62.500000    
    964      1     28     55   0.0000000       62.500000    
    965      1     28     56   0.0000000       62.500000    
    966      1     28     57   0.0000000       62.500000    
    967      1     28     58   0.0000000       62.500000    
    968      1     28     59   0.0000000       62.500000    
    969      1     28     60   0.0000000       62.500000    
    970      1     28     61   0.0000000       62.500000    
    971      1     29      1   0.0000000       62.500000    
    972      1     29      2   0.0000000       62.500000    
    973      1     29      3   0.0000000       62.500000    
    974      1     29      4   0.0000000       62.500000    
    975      1     29      5   0.0000000       62.500000    
    976      1     29      6   0.0000000       62.500000    
    977      1     29      7   0.0000000       62.500000    
    978      1     29      8   0.0000000       62.500000    
    979      1     29      9   0.0000000       62.500000    
    980      1     29     10   0.0000000       62.500000    
    981      1     29     52   0.0000000       62.500000    
    982      1     29     53   0.0000000       62.500000    
    983      1     29     54   0.0000000       62.500000    
    984      1     29     55   0.0000000       62.500000    
    985      1     29     56   0.0000000       62.500000    
    986      1     29     57   0.0000000       62.500000    
    987      1     29     58   0.0000000       62.500000    
    988      1     29     59   0.0000000       62.500000    
    989      1     29     60   0.0000000       62.500000    
    990      1     29     61   0.0000000       62.500000    
    991      1     30      1   0.0000000       62.500000    
    992      1     30      2   0.0000000       62.500000    
    993      1     30      3   0.0000000       62.500000    
    994      1     30      4   0.0000000       62.500000    
    995      1     30      5   0.0000000       62.500000    
    996      1     30      6   0.0000000       62.500000    
    997      1     30      7   0.0000000       62.500000    
    998      1     30      8   0.0000000       62.500000    
    999      1     30      9   0.0000000       62.500000    
   1000      1     30     10   0.0000000       62.500000    
   1001      1     30     52   0.0000000       62.500000    
   1002      1     30     53   0.0000000       62.500000    
   1003      1     30     54   0.0000000       62.500000    
   1004      1     30     55   0.0000000       62.500000    
   1005      1     30     56   0.0000000       62.500000    
   1006      1     30     57   0.0000000       62.500000    
   1007      1     30     58   0.0000000       62.500000    
   1008      1     30     59   0.0000000       62.500000    
   1009      1     30     60   0.0000000       62.500000    
   1010      1     30     61   0.0000000       62.500000    
   1011      1     31      1   0.0000000       62.500000    
   1012      1     31      2   0.0000000       62.500000    
   1013      1     31      3   0.0000000       62.500000    
   1014      1     31      4   0.0000000       62.500000    
   1015      1     31      5   0.0000000       62.500000    
   1016      1     31      6   0.0000000       62.500000    
   1017      1     31      7   0.0000000       62.500000    
   1018      1     31      8   0.0000000       62.500000    
   1019      1     31      9   0.0000000       62.500000    
   1020      1     31     10   0.0000000       62.500000    
   1021      1     31     52   0.0000000       62.500000    
   1022      1     31     53   0.0000000       62.500000    
   1023      1     31     54   0.0000000       62.500000    
   1024      1     31     55   0.0000000       62.500000    
   1025      1     31     56   0.0000000       62.500000    
   1026      1     31     57   0.0000000       62.500000    
   1027      1     31     58   0.0000000       62.500000    
   1028      1     31     59   0.0000000       62.500000    
   1029      1     31     60   0.0000000       62.500000    
   1030      1     31     61   0.0000000       62.500000    
   1031      1     32      1   0.0000000       62.500000    
   1032      1     32      2   0.0000000       62.500000    
   1033      1     32      3   0.0000000       62.500000    
   1034      1     32      4   0.0000000       62.500000    
   1035      1     32      5   0.0000000       62.500000    
   1036      1     32      6   0.0000000       62.500000    
   1037      1     32      7   0.0000000       62.500000    
   1038      1     32      8   0.0000000       62.500000    
   1039      1     32      9   0.0000000       62.500000    
   1040      1     32     10   0.0000000       62.500000    
   1041      1     32     52   0.0000000       62.500000    
   1042      1     32     53   0.0000000       62.500000    
   1043      1     32     54   0.0000000       62.500000    
   1044      1     32     55   0.0000000       62.500000    
   1045      1     32     56   0.0000000       62.500000    
   1046      1     32     57   0.0000000       62.500000    
   1047      1     32     58   0.0000000       62.500000    
   1048      1     32     59   0.0000000       62.500000    
   1049      1     32     60   0.0000000       62.500000    
   1050      1     32     61   0.0000000       62.500000    
   1051      1     33      1   0.0000000       62.500000    
   1052      1     33      2   0.0000000       62.500000    
   1053      1     33      3   0.0000000       62.500000    
   1054      1     33      4   0.0000000       62.500000    
   1055      1     33      5   0.0000000       62.500000    
   1056      1     33      6   0.0000000       62.500000    
   1057      1     33      7   0.0000000       62.500000    
   1058      1     33      8   0.0000000       62.500000    
   1059      1     33      9   0.0000000       62.500000    
   1060      1     33     10   0.0000000       62.500000    
   1061      1     33     52   0.0000000       62.500000    
   1062      1     33     53   0.0000000       62.500000    
   1063      1     33     54   0.0000000       62.500000    
   1064      1     33     55   0.0000000       62.500000    
   1065      1     33     56   0.0000000       62.500000    
   1066      1     33     57   0.0000000       62.500000    
   1067      1     33     58   0.0000000       62.500000    
   1068      1     33     59   0.0000000       62.500000    
   1069      1     33     60   0.0000000       62.500000    
   1070      1     33     61   0.0000000       62.500000    
   1071      1     34      1   0.0000000       62.500000    
   1072      1     34      2   0.0000000       62.500000    
   1073      1     34      3   0.0000000       62.500000    
   1074      1     34      4   0.0000000       62.500000    
   1075      1     34      5   0.0000000       62.500000    
   1076      1     34      6   0.0000000       62.500000    
   1077      1     34      7   0.0000000       62.500000    
   1078      1     34      8   0.0000000       62.500000    
   1079      1     34      9   0.0000000       62.500000    
   1080      1     34     10   0.0000000       62.500000    
   1081      1     34     52   0.0000000       62.500000    
   1082      1     34     53   0.0000000       62.500000    
   1083      1     34     54   0.0000000       62.500000    
   1084      1     34     55   0.0000000       62.500000    
   1085      1     34     56   0.0000000       62.500000    
   1086      1     34     57   0.0000000       62.500000    
   1087      1     34     58   0.0000000       62.500000    
   1088      1     34     59   0.0000000       62.500000    
   1089      1     34     60   0.0000000       62.500000    
   1090      1     34     61   0.0000000       62.500000    
   1091      1     35      1   0.0000000       62.500000    
   1092      1     35      2   0.0000000       62.500000    
   1093      1     35      3   0.0000000       62.500000    
   1094      1     35      4   0.0000000       62.500000    
   1095      1     35      5   0.0000000       62.500000    
   1096      1     35      6   0.0000000       62.500000    
   1097      1     35      7   0.0000000       62.500000    
   1098      1     35      8   0.0000000       62.500000    
   1099      1     35      9   0.0000000       62.500000    
   1100      1     35     10   0.0000000       62.500000    
   1101      1     35     52   0.0000000       62.500000    
   1102      1     35     53   0.0000000       62.500000    
   1103      1     35     54   0.0000000       62.500000    
   1104      1     35     55   0.0000000       62.500000    
   1105      1     35     56   0.0000000       62.500000    
   1106      1     35     57   0.0000000       62.500000    
   1107      1     35     58   0.0000000       62.500000    
   1108      1     35     59   0.0000000       62.500000    
   1109      1     35     60   0.0000000       62.500000    
   1110      1     35     61   0.0000000       62.500000    
   1111      1     36      1   0.0000000       62.500000    
   1112      1     36      2   0.0000000       62.500000    
   1113      1     36      3   0.0000000       62.500000    
   1114      1     36      4   0.0000000       62.500000    
   1115      1     36      5   0.0000000       62.500000    
   1116      1     36      6   0.0000000       62.500000    
   1117      1     36      7   0.0000000       62.500000    
   1118      1     36      8   0.0000000       62.500000    
   1119      1     36      9   0.0000000       62.500000    
   1120      1     36     10   0.0000000       62.500000    
   1121      1     36     52   0.0000000       62.500000    
   1122      1     36     53   0.0000000       62.500000    
   1123      1     36     54   0.0000000       62.500000    
   1124      1     36     55   0.0000000       62.500000    
   1125      1     36     56   0.0000000       62.500000    
   1126      1     36     57   0.0000000       62.500000    
   1127      1     36     58   0.0000000       62.500000    
   1128      1     36     59   0.0000000       62.500000    
   1129      1     36     60   0.0000000       62.500000    
   1130      1     36     61   0.0000000       62.500000    
   1131      1     37      1   0.0000000       62.500000    
   1132      1     37      2   0.0000000       62.500000    
   1133      1     37      3   0.0000000       62.500000    
   1134      1     37      4   0.0000000       62.500000    
   1135      1     37      5   0.0000000       62.500000    
   1136      1     37      6   0.0000000       62.500000    
   1137      1     37      7   0.0000000       62.500000    
   1138      1     37      8   0.0000000       62.500000    
   1139      1     37      9   0.0000000       62.500000    
   1140      1     37     10   0.0000000       62.500000    
   1141      1     37     52   0.0000000       62.500000    
   1142      1     37     53   0.0000000       62.500000    
   1143      1     37     54   0.0000000       62.500000    
   1144      1     37     55   0.0000000       62.500000    
   1145      1     37     56   0.0000000       62.500000    
   1146      1     37     57   0.0000000       62.500000    
   1147      1     37     58   0.0000000       62.500000    
   1148      1     37     59   0.0000000       62.500000    
   1149      1     37     60   0.0000000       62.500000    
   1150      1     37     61   0.0000000       62.500000    
   1151      1     38      1   0.0000000       62.500000    
   1152      1     38      2   0.0000000       62.500000    
   1153      1     38      3   0.0000000       62.500000    
   1154      1     38      4   0.0000000       62.500000    
   1155      1     38      5   0.0000000       62.500000    
   1156      1     38      6   0.0000000       62.500000    
   1157      1     38      7   0.0000000       62.500000    
   1158      1     38      8   0.0000000       62.500000    
   1159      1     38      9   0.0000000       62.500000    
   1160      1     38     10   0.0000000       62.500000    
   1161      1     38     52   0.0000000       62.500000    
   1162      1     38     53   0.0000000       62.500000    
   1163      1     38     54   0.0000000       62.500000    
   1164      1     38     55   0.0000000       62.500000    
   1165      1     38     56   0.0000000       62.500000    
   1166      1     38     57   0.0000000       62.500000    
   1167      1     38     58   0.0000000       62.500000    
   1168      1     38     59   0.0000000       62.500000    
   1169      1     38     60   0.0000000       62.500000    
   1170      1     38     61   0.0000000       62.500000    
   1171      1     39      1   0.0000000       62.500000    
   1172      1     39      2   0.0000000       62.500000    
   1173      1     39      3   0.0000000       62.500000    
   1174      1     39      4   0.0000000       62.500000    
   1175      1     39      5   0.0000000       62.500000    
   1176      1     39      6   0.0000000       62.500000    
   1177      1     39      7   0.0000000       62.500000    
   1178      1     39      8   0.0000000       62.500000    
   1179      1     39      9   0.0000000       62.500000    
   1180      1     39     10   0.0000000       62.500000    
   1181      1     39     52   0.0000000       62.500000    
   1182      1     39     53   0.0000000       62.500000    
   1183      1     39     54   0.0000000       62.500000    
   1184      1     39     55   0.0000000       62.500000    
   1185      1     39     56   0.0000000       62.500000    
   1186      1     39     57   0.0000000       62.500000    
   1187      1     39     58   0.0000000       62.500000    
   1188      1     39     59   0.0000000       62.500000    
   1189      1     39     60   0.0000000       62.500000    
   1190      1     39     61   0.0000000       62.500000    
   1191      1     40      1   0.0000000       62.500000    
   1192      1     40      2   0.0000000       62.500000    
   1193      1     40      3   0.0000000       62.500000    
   1194      1     40      4   0.0000000       62.500000    
   1195      1     40      5   0.0000000       62.500000    
   1196      1     40      6   0.0000000       62.500000    
   1197      1     40      7   0.0000000       62.500000    
   1198      1     40      8   0.0000000       62.500000    
   1199      1     40      9   0.0000000       62.500000    
   1200      1     40     10   0.0000000       62.500000    
   1201      1     40     52   0.0000000       62.500000    
   1202      1     40     53   0.0000000       62.500000    
   1203      1     40     54   0.0000000       62.500000    
   1204      1     40     55   0.0000000       62.500000    
   1205      1     40     56   0.0000000       62.500000    
   1206      1     40     57   0.0000000       62.500000    
   1207      1     40     58   0.0000000       62.500000    
   1208      1     40     59   0.0000000       62.500000    
   1209      1     40     60   0.0000000       62.500000    
   1210      1     40     61   0.0000000       62.500000    
   1211      1     41      1   0.0000000       62.500000    
   1212      1     41      2   0.0000000       62.500000    
   1213      1     41      3   0.0000000       62.500000    
   1214      1     41      4   0.0000000       62.500000    
   1215      1     41      5   0.0000000       62.500000    
   1216      1     41      6   0.0000000       62.500000    
   1217      1     41      7   0.0000000       62.500000    
   1218      1     41      8   0.0000000       62.500000    
   1219      1     41      9   0.0000000       62.500000    
   1220      1     41     10   0.0000000       62.500000    
   1221      1     41     52   0.0000000       62.500000    
   1222      1     41     53   0.0000000       62.500000    
   1223      1     41     54   0.0000000       62.500000    
   1224      1     41     55   0.0000000       62.500000    
   1225      1     41     56   0.0000000       62.500000    
   1226      1     41     57   0.0000000       62.500000    
   1227      1     41     58   0.0000000       62.500000    
   1228      1     41     59   0.0000000       62.500000    
   1229      1     41     60   0.0000000       62.500000    
   1230      1     41     61   0.0000000       62.500000    
   1231      1     42      1   0.0000000       62.500000    
   1232      1     42      2   0.0000000       62.500000    
   1233      1     42      3   0.0000000       62.500000    
   1234      1     42      4   0.0000000       62.500000    
   1235      1     42      5   0.0000000       62.500000    
   1236      1     42      6   0.0000000       62.500000    
   1237      1     42      7   0.0000000       62.500000    
   1238      1     42      8   0.0000000       62.500000    
   1239      1     42      9   0.0000000       62.500000    
   1240      1     42     10   0.0000000       62.500000    
   1241      1     42     52   0.0000000       62.500000    
   1242      1     42     53   0.0000000       62.500000    
   1243      1     42     54   0.0000000       62.500000    
   1244      1     42     55   0.0000000       62.500000    
   1245      1     42     56   0.0000000       62.500000    
   1246      1     42     57   0.0000000       62.500000    
   1247      1     42     58   0.0000000       62.500000    
   1248      1     42     59   0.0000000       62.500000    
   1249      1     42     60   0.0000000       62.500000    
   1250      1     42     61   0.0000000       62.500000    
   1251      1     43      1   0.0000000       62.500000    
   1252      1     43      2   0.0000000       62.500000    
   1253      1     43      3   0.0000000       62.500000    
   1254      1     43      4   0.0000000       62.500000    
   1255      1     43      5   0.0000000       62.500000    
   1256      1     43      6   0.0000000       62.500000    
   1257      1     43      7   0.0000000       62.500000    
   1258      1     43      8   0.0000000       62.500000    
   1259      1     43      9   0.0000000       62.500000    
   1260      1     43     10   0.0000000       62.500000    
   1261      1     43     52   0.0000000       62.500000    
   1262      1     43     53   0.0000000       62.500000    
   1263      1     43     54   0.0000000       62.500000    
   1264      1     43     55   0.0000000       62.500000    
   1265      1     43     56   0.0000000       62.500000    
   1266      1     43     57   0.0000000       62.500000    
   1267      1     43     58   0.0000000       62.500000    
   1268      1     43     59   0.0000000       62.500000    
   1269      1     43     60   0.0000000       62.500000    
   1270      1     43     61   0.0000000       62.500000    
   1271      1     44      1   0.0000000       62.500000    
   1272      1     44      2   0.0000000       62.500000    
   1273      1     44      3   0.0000000       62.500000    
   1274      1     44      4   0.0000000       62.500000    
   1275      1     44      5   0.0000000       62.500000    
   1276      1     44      6   0.0000000       62.500000    
   1277      1     44      7   0.0000000       62.500000    
   1278      1     44      8   0.0000000       62.500000    
   1279      1     44      9   0.0000000       62.500000    
   1280      1     44     10   0.0000000       62.500000    
   1281      1     44     52   0.0000000       62.500000    
   1282      1     44     53   0.0000000       62.500000    
   1283      1     44     54   0.0000000       62.500000    
   1284      1     44     55   0.0000000       62.500000    
   1285      1     44     56   0.0000000       62.500000    
   1286      1     44     57   0.0000000       62.500000    
   1287      1     44     58   0.0000000       62.500000    
   1288      1     44     59   0.0000000       62.500000    
   1289      1     44     60   0.0000000       62.500000    
   1290      1     44     61   0.0000000       62.500000    
   1291      1     45      1   0.0000000       62.500000    
   1292      1     45      2   0.0000000       62.500000    
   1293      1     45      3   0.0000000       62.500000    
   1294      1     45      4   0.0000000       62.500000    
   1295      1     45      5   0.0000000       62.500000    
   1296      1     45      6   0.0000000       62.500000    
   1297      1     45      7   0.0000000       62.500000    
   1298      1     45      8   0.0000000       62.500000    
   1299      1     45      9   0.0000000       62.500000    
   1300      1     45     10   0.0000000       62.500000    
   1301      1     45     52   0.0000000       62.500000    
   1302      1     45     53   0.0000000       62.500000    
   1303      1     45     54   0.0000000       62.500000    
   1304      1     45     55   0.0000000       62.500000    
   1305      1     45     56   0.0000000       62.500000    
   1306      1     45     57   0.0000000       62.500000    
   1307      1     45     58   0.0000000       62.500000    
   1308      1     45     59   0.0000000       62.500000    
   1309      1     45     60   0.0000000       62.500000    
   1310      1     45     61   0.0000000       62.500000    
   1311      1     46      1   0.0000000       62.500000    
   1312      1     46      2   0.0000000       62.500000    
   1313      1     46      3   0.0000000       62.500000    
   1314      1     46      4   0.0000000       62.500000    
   1315      1     46      5   0.0000000       62.500000    
   1316      1     46      6   0.0000000       62.500000    
   1317      1     46      7   0.0000000       62.500000    
   1318      1     46      8   0.0000000       62.500000    
   1319      1     46      9   0.0000000       62.500000    
   1320      1     46     10   0.0000000       62.500000    
   1321      1     46     52   0.0000000       62.500000    
   1322      1     46     53   0.0000000       62.500000    
   1323      1     46     54   0.0000000       62.500000    
   1324      1     46     55   0.0000000       62.500000    
   1325      1     46     56   0.0000000       62.500000    
   1326      1     46     57   0.0000000       62.500000    
   1327      1     46     58   0.0000000       62.500000    
   1328      1     46     59   0.0000000       62.500000    
   1329      1     46     60   0.0000000       62.500000    
   1330      1     46     61   0.0000000       62.500000    
   1331      1     47      1   0.0000000       62.500000    
   1332      1     47      2   0.0000000       62.500000    
   1333      1     47      3   0.0000000       62.500000    
   1334      1     47      4   0.0000000       62.500000    
   1335      1     47      5   0.0000000       62.500000    
   1336      1     47      6   0.0000000       62.500000    
   1337      1     47      7   0.0000000       62.500000    
   1338      1     47      8   0.0000000       62.500000    
   1339      1     47      9   0.0000000       62.500000    
   1340      1     47     10   0.0000000       62.500000    
   1341      1     47     52   0.0000000       62.500000    
   1342      1     47     53   0.0000000       62.500000    
   1343      1     47     54   0.0000000       62.500000    
   1344      1     47     55   0.0000000       62.500000    
   1345      1     47     56   0.0000000       62.500000    
   1346      1     47     57   0.0000000       62.500000    
   1347      1     47     58   0.0000000       62.500000    
   1348      1     47     59   0.0000000       62.500000    
   1349      1     47     60   0.0000000       62.500000    
   1350      1     47     61   0.0000000       62.500000    
   1351      1     48      1   0.0000000       62.500000    
   1352      1     48      2   0.0000000       62.500000    
   1353      1     48      3   0.0000000       62.500000    
   1354      1     48      4   0.0000000       62.500000    
   1355      1     48      5   0.0000000       62.500000    
   1356      1     48      6   0.0000000       62.500000    
   1357      1     48      7   0.0000000       62.500000    
   1358      1     48      8   0.0000000       62.500000    
   1359      1     48      9   0.0000000       62.500000    
   1360      1     48     10   0.0000000       62.500000    
   1361      1     48     52   0.0000000       62.500000    
   1362      1     48     53   0.0000000       62.500000    
   1363      1     48     54   0.0000000       62.500000    
   1364      1     48     55   0.0000000       62.500000    
   1365      1     48     56   0.0000000       62.500000    
   1366      1     48     57   0.0000000       62.500000    
   1367      1     48     58   0.0000000       62.500000    
   1368      1     48     59   0.0000000       62.500000    
   1369      1     48     60   0.0000000       62.500000    
   1370      1     48     61   0.0000000       62.500000    
   1371      1     49      1   0.0000000       62.500000    
   1372      1     49      2   0.0000000       62.500000    
   1373      1     49      3   0.0000000       62.500000    
   1374      1     49      4   0.0000000       62.500000    
   1375      1     49      5   0.0000000       62.500000    
   1376      1     49      6   0.0000000       62.500000    
   1377      1     49      7   0.0000000       62.500000    
   1378      1     49      8   0.0000000       62.500000    
   1379      1     49      9   0.0000000       62.500000    
   1380      1     49     10   0.0000000       62.500000    
   1381      1     49     52   0.0000000       62.500000    
   1382      1     49     53   0.0000000       62.500000    
   1383      1     49     54   0.0000000       62.500000    
   1384      1     49     55   0.0000000       62.500000    
   1385      1     49     56   0.0000000       62.500000    
   1386      1     49     57   0.0000000       62.500000    
   1387      1     49     58   0.0000000       62.500000    
   1388      1     49     59   0.0000000       62.500000    
   1389      1     49     60   0.0000000       62.500000    
   1390      1     49     61   0.0000000       62.500000    
   1391      1     50      1   0.0000000       62.500000    
   1392      1     50      2   0.0000000       62.500000    
   1393      1     50      3   0.0000000       62.500000    
   1394      1     50      4   0.0000000       62.500000    
   1395      1     50      5   0.0000000       62.500000    
   1396      1     50      6   0.0000000       62.500000    
   1397      1     50      7   0.0000000       62.500000    
   1398      1     50      8   0.0000000       62.500000    
   1399      1     50      9   0.0000000       62.500000    
   1400      1     50     10   0.0000000       62.500000    
   1401      1     50     52   0.0000000       62.500000    
   1402      1     50     53   0.0000000       62.500000    
   1403      1     50     54   0.0000000       62.500000    
   1404      1     50     55   0.0000000       62.500000    
   1405      1     50     56   0.0000000       62.500000    
   1406      1     50     57   0.0000000       62.500000    
   1407      1     50     58   0.0000000       62.500000    
   1408      1     50     59   0.0000000       62.500000    
   1409      1     50     60   0.0000000       62.500000    
   1410      1     50     61   0.0000000       62.500000    
   1411      1     51      1   0.0000000       62.500000    
   1412      1     51      2   0.0000000       62.500000    
   1413      1     51      3   0.0000000       62.500000    
   1414      1     51      4   0.0000000       62.500000    
   1415      1     51      5   0.0000000       62.500000    
   1416      1     51      6   0.0000000       62.500000    
   1417      1     51      7   0.0000000       62.500000    
   1418      1     51      8   0.0000000       62.500000    
   1419      1     51      9   0.0000000       62.500000    
   1420      1     51     10   0.0000000       62.500000    
   1421      1     51     52   0.0000000       62.500000    
   1422      1     51     53   0.0000000       62.500000    
   1423      1     51     54   0.0000000       62.500000    
   1424      1     51     55   0.0000000       62.500000    
   1425      1     51     56   0.0000000       62.500000    
   1426      1     51     57   0.0000000       62.500000    
   1427      1     51     58   0.0000000       62.500000    
   1428      1     51     59   0.0000000       62.500000    
   1429      1     51     60   0.0000000       62.500000    
   1430      1     51     61   0.0000000       62.500000    
   1431      1     52      1   0.0000000       62.500000    
   1432      1     52      2   0.0000000       62.500000    
   1433      1     52      3   0.0000000       62.500000    
   1434      1     52      4   0.0000000       62.500000    
   1435      1     52      5   0.0000000       62.500000    
   1436      1     52      6   0.0000000       62.500000    
   1437      1     52      7   0.0000000       62.500000    
   1438      1     52      8   0.0000000       62.500000    
   1439      1     52      9   0.0000000       62.500000    
   1440      1     52     10   0.0000000       62.500000    
   1441      1     52     11   0.0000000       62.500000    
   1442      1     52     12   0.0000000       62.500000    
   1443      1     52     13   0.0000000       62.500000    
   1444      1     52     14   0.0000000       62.500000    
   1445      1     52     15   0.0000000       62.500000    
   1446      1     52     16   0.0000000       62.500000    
   1447      1     52     17   0.0000000       62.500000    
   1448      1     52     18   0.0000000       62.500000    
   1449      1     52     19   0.0000000       62.500000    
   1450      1     52     20   0.0000000       62.500000    
   1451      1     52     21   0.0000000       62.500000    
   1452      1     52     22   0.0000000       62.500000    
   1453      1     52     23   0.0000000       62.500000    
   1454      1     52     24   0.0000000       62.500000    
   1455      1     52     25   0.0000000       62.500000    
   1456      1     52     26   0.0000000       62.500000    
   1457      1     52     27   0.0000000       62.500000    
   1458      1     52     28   0.0000000       62.500000    
   1459      1     52     29   0.0000000       62.500000    
   1460      1     52     30   0.0000000       62.500000    
   1461      1     52     31   0.0000000       62.500000    
   1462      1     52     32   0.0000000       62.500000    
   1463      1     52     33   0.0000000       62.500000    
   1464      1     52     34   0.0000000       62.500000    
   1465      1     52     35   0.0000000       62.500000    
   1466      1     52     36   0.0000000       62.500000    
   1467      1     52     37   0.0000000       62.500000    
   1468      1     52     38   0.0000000       62.500000    
   1469      1     52     39   0.0000000       62.500000    
   1470      1     52     40   0.0000000       62.500000    
   1471      1     52     41   0.0000000       62.500000    
   1472      1     52     42   0.0000000       62.500000    
   1473      1     52     43   0.0000000       62.500000    
   1474      1     52     44   0.0000000       62.500000    
   1475      1     52     45   0.0000000       62.500000    
   1476      1     52     46   0.0000000       62.500000    
   1477      1     52     47   0.0000000       62.500000    
   1478      1     52     48   0.0000000       62.500000    
   1479      1     52     49   0.0000000       62.500000    
   1480      1     52     50   0.0000000       62.500000    
   1481      1     52     51   0.0000000       62.500000    
   1482      1     52     52   0.0000000       62.500000    
   1483      1     52     53   0.0000000       62.500000    
   1484      1     52     54   0.0000000       62.500000    
   1485      1     52     55   0.0000000       62.500000    
   1486      1     52     56   0.0000000       62.500000    
   1487      1     52     57   0.0000000       62.500000    
   1488      1     52     58   0.0000000       62.500000    
   1489      1     52     59   0.0000000       62.500000    
   1490      1     52     60   0.0000000       62.500000    
   1491      1     52     61   0.0000000       62.500000    
   1492      1     53      1   0.0000000       62.500000    
   1493      1     53      2   0.0000000       62.500000    
   1494      1     53      3   0.0000000       62.500000    
   1495      1     53      4   0.0000000       62.500000    
   1496      1     53      5   0.0000000       62.500000    
   1497      1     53      6   0.0000000       62.500000    
   1498      1     53      7   0.0000000       62.500000    
   1499      1     53      8   0.0000000       62.500000    
   1500      1     53      9   0.0000000       62.500000    
   1501      1     53     10   0.0000000       62.500000    
   1502      1     53     11   0.0000000       62.500000    
   1503      1     53     12   0.0000000       62.500000    
   1504      1     53     13   0.0000000       62.500000    
   1505      1     53     14   0.0000000       62.500000    
   1506      1     53     15   0.0000000       62.500000    
   1507      1     53     16   0.0000000       62.500000    
   1508      1     53     17   0.0000000       62.500000    
   1509      1     53     18   0.0000000       62.500000    
   1510      1     53     19   0.0000000       62.500000    
   1511      1     53     20   0.0000000       62.500000    
   1512      1     53     21   0.0000000       62.500000    
   1513      1     53     22   0.0000000       62.500000    
   1514      1     53     23   0.0000000       62.500000    
   1515      1     53     24   0.0000000       62.500000    
   1516      1     53     25   0.0000000       62.500000    
   1517      1     53     26   0.0000000       62.500000    
   1518      1     53     27   0.0000000       62.500000    
   1519      1     53     28   0.0000000       62.500000    
   1520      1     53     29   0.0000000       62.500000    
   1521      1     53     30   0.0000000       62.500000    
   1522      1     53     31   0.0000000       62.500000    
   1523      1     53     32   0.0000000       62.500000    
   1524      1     53     33   0.0000000       62.500000    
   1525      1     53     34   0.0000000       62.500000    
   1526      1     53     35   0.0000000       62.500000    
   1527      1     53     36   0.0000000       62.500000    
   1528      1     53     37   0.0000000       62.500000    
   1529      1     53     38   0.0000000       62.500000    
   1530      1     53     39   0.0000000       62.500000    
   1531      1     53     40   0.0000000       62.500000    
   1532      1     53     41   0.0000000       62.500000    
   1533      1     53     42   0.0000000       62.500000    
   1534      1     53     43   0.0000000       62.500000    
   1535      1     53     44   0.0000000       62.500000    
   1536      1     53     45   0.0000000       62.500000    
   1537      1     53     46   0.0000000       62.500000    
   1538      1     53     47   0.0000000       62.500000    
   1539      1     53     48   0.0000000       62.500000    
   1540      1     53     49   0.0000000       62.500000    
   1541      1     53     50   0.0000000       62.500000    
   1542      1     53     51   0.0000000       62.500000    
   1543      1     53     52   0.0000000       62.500000    
   1544      1     53     53   0.0000000       62.500000    
   1545      1     53     54   0.0000000       62.500000    
   1546      1     53     55   0.0000000       62.500000    
   1547      1     53     56   0.0000000       62.500000    
   1548      1     53     57   0.0000000       62.500000    
   1549      1     53     58   0.0000000       62.500000    
   1550      1     53     59   0.0000000       62.500000    
   1551      1     53     60   0.0000000       62.500000    
   1552      1     53     61   0.0000000       62.500000    
   1553      1     54      1   0.0000000       62.500000    
   1554      1     54      2   0.0000000       62.500000    
   1555      1     54      3   0.0000000       62.500000    
   1556      1     54      4   0.0000000       62.500000    
   1557      1     54      5   0.0000000       62.500000    
   1558      1     54      6   0.0000000       62.500000    
   1559      1     54      7   0.0000000       62.500000    
   1560      1     54      8   0.0000000       62.500000    
   1561      1     54      9   0.0000000       62.500000    
   1562      1     54     10   0.0000000       62.500000    
   1563      1     54     11   0.0000000       62.500000    
   1564      1     54     12   0.0000000       62.500000    
   1565      1     54     13   0.0000000       62.500000    
   1566      1     54     14   0.0000000       62.500000    
   1567      1     54     15   0.0000000       62.500000    
   1568      1     54     16   0.0000000       62.500000    
   1569      1     54     17   0.0000000       62.500000    
   1570      1     54     18   0.0000000       62.500000    
   1571      1     54     19   0.0000000       62.500000    
   1572      1     54     20   0.0000000       62.500000    
   1573      1     54     21   0.0000000       62.500000    
   1574      1     54     22   0.0000000       62.500000    
   1575      1     54     23   0.0000000       62.500000    
   1576      1     54     24   0.0000000       62.500000    
   1577      1     54     25   0.0000000       62.500000    
   1578      1     54     26   0.0000000       62.500000    
   1579      1     54     27   0.0000000       62.500000    
   1580      1     54     28   0.0000000       62.500000    
   1581      1     54     29   0.0000000       62.500000    
   1582      1     54     30   0.0000000       62.500000    
   1583      1     54     31   0.0000000       62.500000    
   1584      1     54     32   0.0000000       62.500000    
   1585      1     54     33   0.0000000       62.500000    
   1586      1     54     34   0.0000000       62.500000    
   1587      1     54     35   0.0000000       62.500000    
   1588      1     54     36   0.0000000       62.500000    
   1589      1     54     37   0.0000000       62.500000    
   1590      1     54     38   0.0000000       62.500000    
   1591      1     54     39   0.0000000       62.500000    
   1592      1     54     40   0.0000000       62.500000    
   1593      1     54     41   0.0000000       62.500000    
   1594      1     54     42   0.0000000       62.500000    
   1595      1     54     43   0.0000000       62.500000    
   1596      1     54     44   0.0000000       62.500000    
   1597      1     54     45   0.0000000       62.500000    
   1598      1     54     46   0.0000000       62.500000    
   1599      1     54     47   0.0000000       62.500000    
   1600      1     54     48   0.0000000       62.500000    
   1601      1     54     49   0.0000000       62.500000    
   1602      1     54     50   0.0000000       62.500000    
   1603      1     54     51   0.0000000       62.500000    
   1604      1     54     52   0.0000000       62.500000    
   1605      1     54     53   0.0000000       62.500000    
   1606      1     54     54   0.0000000       62.500000    
   1607      1     54     55   0.0000000       62.500000    
   1608      1     54     56   0.0000000       62.500000    
   1609      1     54     57   0.0000000       62.500000    
   1610      1     54     58   0.0000000       62.500000    
   1611      1     54     59   0.0000000       62.500000    
   1612      1     54     60   0.0000000       62.500000    
   1613      1     54     61   0.0000000       62.500000    
   1614      1     55      1   0.0000000       62.500000    
   1615      1     55      2   0.0000000       62.500000    
   1616      1     55      3   0.0000000       62.500000    
   1617      1     55      4   0.0000000       62.500000    
   1618      1     55      5   0.0000000       62.500000    
   1619      1     55      6   0.0000000       62.500000    
   1620      1     55      7   0.0000000       62.500000    
   1621      1     55      8   0.0000000       62.500000    
   1622      1     55      9   0.0000000       62.500000    
   1623      1     55     10   0.0000000       62.500000    
   1624      1     55     11   0.0000000       62.500000    
   1625      1     55     12   0.0000000       62.500000    
   1626      1     55     13   0.0000000       62.500000    
   1627      1     55     14   0.0000000       62.500000    
   1628      1     55     15   0.0000000       62.500000    
   1629      1     55     16   0.0000000       62.500000    
   1630      1     55     17   0.0000000       62.500000    
   1631      1     55     18   0.0000000       62.500000    
   1632      1     55     19   0.0000000       62.500000    
   1633      1     55     20   0.0000000       62.500000    
   1634      1     55     21   0.0000000       62.500000    
   1635      1     55     22   0.0000000       62.500000    
   1636      1     55     23   0.0000000       62.500000    
   1637      1     55     24   0.0000000       62.500000    
   1638      1     55     25   0.0000000       62.500000    
   1639      1     55     26   0.0000000       62.500000    
   1640      1     55     27   0.0000000       62.500000    
   1641      1     55     28   0.0000000       62.500000    
   1642      1     55     29   0.0000000       62.500000    
   1643      1     55     30   0.0000000       62.500000    
   1644      1     55     31   0.0000000       62.500000    
   1645      1     55     32   0.0000000       62.500000    
   1646      1     55     33   0.0000000       62.500000    
   1647      1     55     34   0.0000000       62.500000    
   1648      1     55     35   0.0000000       62.500000    
   1649      1     55     36   0.0000000       62.500000    
   1650      1     55     37   0.0000000       62.500000    
   1651      1     55     38   0.0000000       62.500000    
   1652      1     55     39   0.0000000       62.500000    
   1653      1     55     40   0.0000000       62.500000    
   1654      1     55     41   0.0000000       62.500000    
   1655      1     55     42   0.0000000       62.500000    
   1656      1     55     43   0.0000000       62.500000    
   1657      1     55     44   0.0000000       62.500000    
   1658      1     55     45   0.0000000       62.500000    
   1659      1     55     46   0.0000000       62.500000    
   1660      1     55     47   0.0000000       62.500000    
   1661      1     55     48   0.0000000       62.500000    
   1662      1     55     49   0.0000000       62.500000    
   1663      1     55     50   0.0000000       62.500000    
   1664      1     55     51   0.0000000       62.500000    
   1665      1     55     52   0.0000000       62.500000    
   1666      1     55     53   0.0000000       62.500000    
   1667      1     55     54   0.0000000       62.500000    
   1668      1     55     55   0.0000000       62.500000    
   1669      1     55     56   0.0000000       62.500000    
   1670      1     55     57   0.0000000       62.500000    
   1671      1     55     58   0.0000000       62.500000    
   1672      1     55     59   0.0000000       62.500000    
   1673      1     55     60   0.0000000       62.500000    
   1674      1     55     61   0.0000000       62.500000    
   1675      1     56      1   0.0000000       62.500000    
   1676      1     56      2   0.0000000       62.500000    
   1677      1     56      3   0.0000000       62.500000    
   1678      1     56      4   0.0000000       62.500000    
   1679      1     56      5   0.0000000       62.500000    
   1680      1     56      6   0.0000000       62.500000    
   1681      1     56      7   0.0000000       62.500000    
   1682      1     56      8   0.0000000       62.500000    
   1683      1     56      9   0.0000000       62.500000    
   1684      1     56     10   0.0000000       62.500000    
   1685      1     56     11   0.0000000       62.500000    
   1686      1     56     12   0.0000000       62.500000    
   1687      1     56     13   0.0000000       62.500000    
   1688      1     56     14   0.0000000       62.500000    
   1689      1     56     15   0.0000000       62.500000    
   1690      1     56     16   0.0000000       62.500000    
   1691      1     56     17   0.0000000       62.500000    
   1692      1     56     18   0.0000000       62.500000    
   1693      1     56     19   0.0000000       62.500000    
   1694      1     56     20   0.0000000       62.500000    
   1695      1     56     21   0.0000000       62.500000    
   1696      1     56     22   0.0000000       62.500000    
   1697      1     56     23   0.0000000       62.500000    
   1698      1     56     24   0.0000000       62.500000    
   1699      1     56     25   0.0000000       62.500000    
   1700      1     56     26   0.0000000       62.500000    
   1701      1     56     27   0.0000000       62.500000    
   1702      1     56     28   0.0000000       62.500000    
   1703      1     56     29   0.0000000       62.500000    
   1704      1     56     30   0.0000000       62.500000    
   1705      1     56     31   0.0000000       62.500000    
   1706      1     56     32   0.0000000       62.500000    
   1707      1     56     33   0.0000000       62.500000    
   1708      1     56     34   0.0000000       62.500000    
   1709      1     56     35   0.0000000       62.500000    
   1710      1     56     36   0.0000000       62.500000    
   1711      1     56     37   0.0000000       62.500000    
   1712      1     56     38   0.0000000       62.500000    
   1713      1     56     39   0.0000000       62.500000    
   1714      1     56     40   0.0000000       62.500000    
   1715      1     56     41   0.0000000       62.500000    
   1716      1     56     42   0.0000000       62.500000    
   1717      1     56     43   0.0000000       62.500000    
   1718      1     56     44   0.0000000       62.500000    
   1719      1     56     45   0.0000000       62.500000    
   1720      1     56     46   0.0000000       62.500000    
   1721      1     56     47   0.0000000       62.500000    
   1722      1     56     48   0.0000000       62.500000    
   1723      1     56     49   0.0000000       62.500000    
   1724      1     56     50   0.0000000       62.500000    
   1725      1     56     51   0.0000000       62.500000    
   1726      1     56     52   0.0000000       62.500000    
   1727      1     56     53   0.0000000       62.500000    
   1728      1     56     54   0.0000000       62.500000    
   1729      1     56     55   0.0000000       62.500000    
   1730      1     56     56   0.0000000       62.500000    
   1731      1     56     57   0.0000000       62.500000    
   1732      1     56     58   0.0000000       62.500000    
   1733      1     56     59   0.0000000       62.500000    
   1734      1     56     60   0.0000000       62.500000    
   1735      1     56     61   0.0000000       62.500000    
   1736      1     57      1   0.0000000       62.500000    
   1737      1     57      2   0.0000000       62.500000    
   1738      1     57      3   0.0000000       62.500000    
   1739      1     57      4   0.0000000       62.500000    
   1740      1     57      5   0.0000000       62.500000    
   1741      1     57      6   0.0000000       62.500000    
   1742      1     57      7   0.0000000       62.500000    
   1743      1     57      8   0.0000000       62.500000    
   1744      1     57      9   0.0000000       62.500000    
   1745      1     57     10   0.0000000       62.500000    
   1746      1     57     11   0.0000000       62.500000    
   1747      1     57     12   0.0000000       62.500000    
   1748      1     57     13   0.0000000       62.500000    
   1749      1     57     14   0.0000000       62.500000    
   1750      1     57     15   0.0000000       62.500000    
   1751      1     57     16   0.0000000       62.500000    
   1752      1     57     17   0.0000000       62.500000    
   1753      1     57     18   0.0000000       62.500000    
   1754      1     57     19   0.0000000       62.500000    
   1755      1     57     20   0.0000000       62.500000    
   1756      1     57     21   0.0000000       62.500000    
   1757      1     57     22   0.0000000       62.500000    
   1758      1     57     23   0.0000000       62.500000    
   1759      1     57     24   0.0000000       62.500000    
   1760      1     57     25   0.0000000       62.500000    
   1761      1     57     26   0.0000000       62.500000    
   1762      1     57     27   0.0000000       62.500000    
   1763      1     57     28   0.0000000       62.500000    
   1764      1     57     29   0.0000000       62.500000    
   1765      1     57     30   0.0000000       62.500000    
   1766      1     57     31   0.0000000       62.500000    
   1767      1     57     32   0.0000000       62.500000    
   1768      1     57     33   0.0000000       62.500000    
   1769      1     57     34   0.0000000       62.500000    
   1770      1     57     35   0.0000000       62.500000    
   1771      1     57     36   0.0000000       62.500000    
   1772      1     57     37   0.0000000       62.500000    
   1773      1     57     38   0.0000000       62.500000    
   1774      1     57     39   0.0000000       62.500000    
   1775      1     57     40   0.0000000       62.500000    
   1776      1     57     41   0.0000000       62.500000    
   1777      1     57     42   0.0000000       62.500000    
   1778      1     57     43   0.0000000       62.500000    
   1779      1     57     44   0.0000000       62.500000    
   1780      1     57     45   0.0000000       62.500000    
   1781      1     57     46   0.0000000       62.500000    
   1782      1     57     47   0.0000000       62.500000    
   1783      1     57     48   0.0000000       62.500000    
   1784      1     57     49   0.0000000       62.500000    
   1785      1     57     50   0.0000000       62.500000    
   1786      1     57     51   0.0000000       62.500000    
   1787      1     57     52   0.0000000       62.500000    
   1788      1     57     53   0.0000000       62.500000    
   1789      1     57     54   0.0000000       62.500000    
   1790      1     57     55   0.0000000       62.500000    
   1791      1     57     56   0.0000000       62.500000    
   1792      1     57     57   0.0000000       62.500000    
   1793      1     57     58   0.0000000       62.500000    
   1794      1     57     59   0.0000000       62.500000    
   1795      1     57     60   0.0000000       62.500000    
   1796      1     57     61   0.0000000       62.500000    
   1797      1     58      1   0.0000000       62.500000    
   1798      1     58      2   0.0000000       62.500000    
   1799      1     58      3   0.0000000       62.500000    
   1800      1     58      4   0.0000000       62.500000    
   1801      1     58      5   0.0000000       62.500000    
   1802      1     58      6   0.0000000       62.500000    
   1803      1     58      7   0.0000000       62.500000    
   1804      1     58      8   0.0000000       62.500000    
   1805      1     58      9   0.0000000       62.500000    
   1806      1     58     10   0.0000000       62.500000    
   1807      1     58     11   0.0000000       62.500000    
   1808      1     58     12   0.0000000       62.500000    
   1809      1     58     13   0.0000000       62.500000    
   1810      1     58     14   0.0000000       62.500000    
   1811      1     58     15   0.0000000       62.500000    
   1812      1     58     16   0.0000000       62.500000    
   1813      1     58     17   0.0000000       62.500000    
   1814      1     58     18   0.0000000       62.500000    
   1815      1     58     19   0.0000000       62.500000    
   1816      1     58     20   0.0000000       62.500000    
   1817      1     58     21   0.0000000       62.500000    
   1818      1     58     22   0.0000000       62.500000    
   1819      1     58     23   0.0000000       62.500000    
   1820      1     58     24   0.0000000       62.500000    
   1821      1     58     25   0.0000000       62.500000    
   1822      1     58     26   0.0000000       62.500000    
   1823      1     58     27   0.0000000       62.500000    
   1824      1     58     28   0.0000000       62.500000    
   1825      1     58     29   0.0000000       62.500000    
   1826      1     58     30   0.0000000       62.500000    
   1827      1     58     31   0.0000000       62.500000    
   1828      1     58     32   0.0000000       62.500000    
   1829      1     58     33   0.0000000       62.500000    
   1830      1     58     34   0.0000000       62.500000    
   1831      1     58     35   0.0000000       62.500000    
   1832      1     58     36   0.0000000       62.500000    
   1833      1     58     37   0.0000000       62.500000    
   1834      1     58     38   0.0000000       62.500000    
   1835      1     58     39   0.0000000       62.500000    
   1836      1     58     40   0.0000000       62.500000    
   1837      1     58     41   0.0000000       62.500000    
   1838      1     58     42   0.0000000       62.500000    
   1839      1     58     43   0.0000000       62.500000    
   1840      1     58     44   0.0000000       62.500000    
   1841      1     58     45   0.0000000       62.500000    
   1842      1     58     46   0.0000000       62.500000    
   1843      1     58     47   0.0000000       62.500000    
   1844      1     58     48   0.0000000       62.500000    
   1845      1     58     49   0.0000000       62.500000    
   1846      1     58     50   0.0000000       62.500000    
   1847      1     58     51   0.0000000       62.500000    
   1848      1     58     52   0.0000000       62.500000    
   1849      1     58     53   0.0000000       62.500000    
   1850      1     58     54   0.0000000       62.500000    
   1851      1     58     55   0.0000000       62.500000    
   1852      1     58     56   0.0000000       62.500000    
   1853      1     58     57   0.0000000       62.500000    
   1854      1     58     58   0.0000000       62.500000    
   1855      1     58     59   0.0000000       62.500000    
   1856      1     58     60   0.0000000       62.500000    
   1857      1     58     61   0.0000000       62.500000    
   1858      1     59      1   0.0000000       62.500000    
   1859      1     59      2   0.0000000       62.500000    
   1860      1     59      3   0.0000000       62.500000    
   1861      1     59      4   0.0000000       62.500000    
   1862      1     59      5   0.0000000       62.500000    
   1863      1     59      6   0.0000000       62.500000    
   1864      1     59      7   0.0000000       62.500000    
   1865      1     59      8   0.0000000       62.500000    
   1866      1     59      9   0.0000000       62.500000    
   1867      1     59     10   0.0000000       62.500000    
   1868      1     59     11   0.0000000       62.500000    
   1869      1     59     12   0.0000000       62.500000    
   1870      1     59     13   0.0000000       62.500000    
   1871      1     59     14   0.0000000       62.500000    
   1872      1     59     15   0.0000000       62.500000    
   1873      1     59     16   0.0000000       62.500000    
   1874      1     59     17   0.0000000       62.500000    
   1875      1     59     18   0.0000000       62.500000    
   1876      1     59     19   0.0000000       62.500000    
   1877      1     59     20   0.0000000       62.500000    
   1878      1     59     21   0.0000000       62.500000    
   1879      1     59     22   0.0000000       62.500000    
   1880      1     59     23   0.0000000       62.500000    
   1881      1     59     24   0.0000000       62.500000    
   1882      1     59     25   0.0000000       62.500000    
   1883      1     59     26   0.0000000       62.500000    
   1884      1     59     27   0.0000000       62.500000    
   1885      1     59     28   0.0000000       62.500000    
   1886      1     59     29   0.0000000       62.500000    
   1887      1     59     30   0.0000000       62.500000    
   1888      1     59     31   0.0000000       62.500000    
   1889      1     59     32   0.0000000       62.500000    
   1890      1     59     33   0.0000000       62.500000    
   1891      1     59     34   0.0000000       62.500000    
   1892      1     59     35   0.0000000       62.500000    
   1893      1     59     36   0.0000000       62.500000    
   1894      1     59     37   0.0000000       62.500000    
   1895      1     59     38   0.0000000       62.500000    
   1896      1     59     39   0.0000000       62.500000    
   1897      1     59     40   0.0000000       62.500000    
   1898      1     59     41   0.0000000       62.500000    
   1899      1     59     42   0.0000000       62.500000    
   1900      1     59     43   0.0000000       62.500000    
   1901      1     59     44   0.0000000       62.500000    
   1902      1     59     45   0.0000000       62.500000    
   1903      1     59     46   0.0000000       62.500000    
   1904      1     59     47   0.0000000       62.500000    
   1905      1     59     48   0.0000000       62.500000    
   1906      1     59     49   0.0000000       62.500000    
   1907      1     59     50   0.0000000       62.500000    
   1908      1     59     51   0.0000000       62.500000    
   1909      1     59     52   0.0000000       62.500000    
   1910      1     59     53   0.0000000       62.500000    
   1911      1     59     54   0.0000000       62.500000    
   1912      1     59     55   0.0000000       62.500000    
   1913      1     59     56   0.0000000       62.500000    
   1914      1     59     57   0.0000000       62.500000    
   1915      1     59     58   0.0000000       62.500000    
   1916      1     59     59   0.0000000       62.500000    
   1917      1     59     60   0.0000000       62.500000    
   1918      1     59     61   0.0000000       62.500000    
   1919      1     60      1   0.0000000       62.500000    
   1920      1     60      2   0.0000000       62.500000    
   1921      1     60      3   0.0000000       62.500000    
   1922      1     60      4   0.0000000       62.500000    
   1923      1     60      5   0.0000000       62.500000    
   1924      1     60      6   0.0000000       62.500000    
   1925      1     60      7   0.0000000       62.500000    
   1926      1     60      8   0.0000000       62.500000    
   1927      1     60      9   0.0000000       62.500000    
   1928      1     60     10   0.0000000       62.500000    
   1929      1     60     11   0.0000000       62.500000    
   1930      1     60     12   0.0000000       62.500000    
   1931      1     60     13   0.0000000       62.500000    
   1932      1     60     14   0.0000000       62.500000    
   1933      1     60     15   0.0000000       62.500000    
   1934      1     60     16   0.0000000       62.500000    
   1935      1     60     17   0.0000000       62.500000    
   1936      1     60     18   0.0000000       62.500000    
   1937      1     60     19   0.0000000       62.500000    
   1938      1     60     20   0.0000000       62.500000    
   1939      1     60     21   0.0000000       62.500000    
   1940      1     60     22   0.0000000       62.500000    
   1941      1     60     23   0.0000000       62.500000    
   1942      1     60     24   0.0000000       62.500000    
   1943      1     60     25   0.0000000       62.500000    
   1944      1     60     26   0.0000000       62.500000    
   1945      1     60     27   0.0000000       62.500000    
   1946      1     60     28   0.0000000       62.500000    
   1947      1     60     29   0.0000000       62.500000    
   1948      1     60     30   0.0000000       62.500000    
   1949      1     60     31   0.0000000       62.500000    
   1950      1     60     32   0.0000000       62.500000    
   1951      1     60     33   0.0000000       62.500000    
   1952      1     60     34   0.0000000       62.500000    
   1953      1     60     35   0.0000000       62.500000    
   1954      1     60     36   0.0000000       62.500000    
   1955      1     60     37   0.0000000       62.500000    
   1956      1     60     38   0.0000000       62.500000    
   1957      1     60     39   0.0000000       62.500000    
   1958      1     60     40   0.0000000       62.500000    
   1959      1     60     41   0.0000000       62.500000    
   1960      1     60     42   0.0000000       62.500000    
   1961      1     60     43   0.0000000       62.500000    
   1962      1     60     44   0.0000000       62.500000    
   1963      1     60     45   0.0000000       62.500000    
   1964      1     60     46   0.0000000       62.500000    
   1965      1     60     47   0.0000000       62.500000    
   1966      1     60     48   0.0000000       62.500000    
   1967      1     60     49   0.0000000       62.500000    
   1968      1     60     50   0.0000000       62.500000    
   1969      1     60     51   0.0000000       62.500000    
   1970      1     60     52   0.0000000       62.500000    
   1971      1     60     53   0.0000000       62.500000    
   1972      1     60     54   0.0000000       62.500000    
   1973      1     60     55   0.0000000       62.500000    
   1974      1     60     56   0.0000000       62.500000    
   1975      1     60     57   0.0000000       62.500000    
   1976      1     60     58   0.0000000       62.500000    
   1977      1     60     59   0.0000000       62.500000    
   1978      1     60     60   0.0000000       62.500000    
   1979      1     60     61   0.0000000       62.500000    
   1980      1     61      1   0.0000000       62.500000    
   1981      1     61      2   0.0000000       62.500000    
   1982      1     61      3   0.0000000       62.500000    
   1983      1     61      4   0.0000000       62.500000    
   1984      1     61      5   0.0000000       62.500000    
   1985      1     61      6   0.0000000       62.500000    
   1986      1     61      7   0.0000000       62.500000    
   1987      1     61      8   0.0000000       62.500000    
   1988      1     61      9   0.0000000       62.500000    
   1989      1     61     10   0.0000000       62.500000    
   1990      1     61     11   0.0000000       62.500000    
   1991      1     61     12   0.0000000       62.500000    
   1992      1     61     13   0.0000000       62.500000    
   1993      1     61     14   0.0000000       62.500000    
   1994      1     61     15   0.0000000       62.500000    
   1995      1     61     16   0.0000000       62.500000    
   1996      1     61     17   0.0000000       62.500000    
   1997      1     61     18   0.0000000       62.500000    
   1998      1     61     19   0.0000000       62.500000    
   1999      1     61     20   0.0000000       62.500000    
   2000      1     61     21   0.0000000       62.500000    
   2001      1     61     22   0.0000000       62.500000    
   2002      1     61     23   0.0000000       62.500000    
   2003      1     61     24   0.0000000       62.500000    
   2004      1     61     25   0.0000000       62.500000    
   2005      1     61     26   0.0000000       62.500000    
   2006      1     61     27   0.0000000       62.500000    
   2007      1     61     28   0.0000000       62.500000    
   2008      1     61     29   0.0000000       62.500000    
   2009      1     61     30   0.0000000       62.500000    
   2010      1     61     31   0.0000000       62.500000    
   2011      1     61     32   0.0000000       62.500000    
   2012      1     61     33   0.0000000       62.500000    
   2013      1     61     34   0.0000000       62.500000    
   2014      1     61     35   0.0000000       62.500000    
   2015      1     61     36   0.0000000       62.500000    
   2016      1     61     37   0.0000000       62.500000    
   2017      1     61     38   0.0000000       62.500000    
   2018      1     61     39   0.0000000       62.500000    
   2019      1     61     40   0.0000000       62.500000    
   2020      1     61     41   0.0000000       62.500000    
   2021      1     61     42   0.0000000       62.500000    
   2022      1     61     43   0.0000000       62.500000    
   2023      1     61     44   0.0000000       62.500000    
   2024      1     61     45   0.0000000       62.500000    
   2025      1     61     46   0.0000000       62.500000    
   2026      1     61     47   0.0000000       62.500000    
   2027      1     61     48   0.0000000       62.500000    
   2028      1     61     49   0.0000000       62.500000    
   2029      1     61     50   0.0000000       62.500000    
   2030      1     61     51   0.0000000       62.500000    
   2031      1     61     52   0.0000000       62.500000    
   2032      1     61     53   0.0000000       62.500000    
   2033      1     61     54   0.0000000       62.500000    
   2034      1     61     55   0.0000000       62.500000    
   2035      1     61     56   0.0000000       62.500000    
   2036      1     61     57   0.0000000       62.500000    
   2037      1     61     58   0.0000000       62.500000    
   2038      1     61     59   0.0000000       62.500000    
   2039      1     61     60   0.0000000       62.500000    
   2040      1     61     61   0.0000000       62.500000    

   2040 GHB CELLS
 
 SOLVING FOR HEAD 
                                                   Max.-Head-Change                         Max.-Flux-Residual
  Residual-Control     NWT-Iter.   Inner-Iter.     Column Row Layer    Maximum-Head-Change  Column Row Layer    Maximum-Flux-Residual          L2-NORM   Outer-Iter.
          0                 1          14            31   31     2           8.810674E-01      11   10    1            -1.750000E+01          1.041353E+03    1
          0                 2           2            20   47     1           3.060251E-04      22   46    2             2.026131E-02          3.816444E-01    2
          0                 3           2            25   32     1           2.682077E-04      26   31    1             1.128986E-02          2.912566E-01    3
          0                 4           2            30   38     2           2.333767E-04      57    3    2             1.083905E-02          2.514806E-01    4
          0                 5           2            29   36     1           2.154332E-04      29   36    1             9.338180E-03          2.207419E-01    5
          0                 6           2            30   34     2           2.317629E-04      31   33    2             9.178626E-03          1.979272E-01    6
          0                 7           2            29   32     1           1.719722E-04      31   34    1             8.058783E-03          1.759829E-01    7
          0                 8           2            31   33     2           2.175963E-04      31   33    2             7.803238E-03          1.586646E-01    8
          0                 9           2            30   31     1           1.301697E-04      32   33    1             6.708453E-03          1.413235E-01    9
          0                10           2            31   33     2           1.888553E-04      32   32    2             6.408860E-03          1.274075E-01    10
                                                   Max.-Head-Change                         Max.-Flux-Residual
  Residual-Control     NWT-Iter.   Inner-Iter.     Column Row Layer    Maximum-Head-Change  Column Row Layer    Maximum-Flux-Residual          L2-NORM   Outer-Iter.
          0                11           2            31   30     1           9.971435E-05      48   12    2             5.697772E-03          1.136544E-01    11
          0                12           2            32   32     2           1.544286E-04      32   32    2             5.200377E-03          1.022268E-01    12
          0                13           2            31   30     1           7.927991E-05      48   12    2             5.139124E-03          9.142424E-02    13
          0                14           2            32   32     2           1.218965E-04      32   32    2             4.192312E-03          8.213620E-02    14
          0                15           2            29   31     2           6.444105E-05      48   12    2             4.098541E-03          7.363928E-02    15
          0                16           2            32   32     2           9.554249E-05      32   32    2             3.377481E-03          6.620874E-02    16
          0                17           2            29   31     2           5.276592E-05      42   14    2             3.369732E-03          5.951645E-02    17
          0                18           2            32   32     2           7.540172E-05      32   32    2             2.723311E-03          5.355078E-02    18
          0                19           2            29   31     2           4.327489E-05      42   14    2             2.769807E-03          4.822343E-02    19
          0                20           2            32   32     2           5.975439E-05      33   31    2             2.203321E-03          4.342327E-02    20
                                                   Max.-Head-Change                         Max.-Flux-Residual
  Residual-Control     NWT-Iter.   Inner-Iter.     Column Row Layer    Maximum-Head-Change  Column Row Layer    Maximum-Flux-Residual          L2-NORM   Outer-Iter.
          0                21           2            29   31     2           3.554090E-05      42   14    2             2.247173E-03          3.915493E-02    21
          0                22           2            32   32     2           4.750228E-05      33   31    2             1.789637E-03          3.528518E-02    22
          0                23           2            29   31     2           2.922687E-05      42   14    2             1.810630E-03          3.184979E-02    23
          0                24           2            32   32     2           3.786601E-05      33   31    2             1.454649E-03          2.872409E-02    24
          0                25           2            29   31     2           2.406278E-05      39   18    1             1.464190E-03          2.594936E-02    25
          0                26           2            31   30     1           3.035445E-05      36   21    1             1.185579E-03          2.341978E-02    26
          0                27           2            29   31     2           1.983208E-05      39   18    1             1.226363E-03          2.117222E-02    27
          0                28           2            31   30     1           2.440895E-05      36   21    1             1.001152E-03          1.912120E-02    28
          0                29           2            29   31     2           1.636073E-05      39   18    1             1.017860E-03          1.729627E-02    29
          0                30           2            31   30     1           1.965928E-05      36   21    1             8.418039E-04          1.563033E-02    30
                                                   Max.-Head-Change                         Max.-Flux-Residual
  Residual-Control     NWT-Iter.   Inner-Iter.     Column Row Layer    Maximum-Head-Change  Column Row Layer    Maximum-Flux-Residual          L2-NORM   Outer-Iter.
          0                31           2            30   32     2           1.351388E-05      39   18    1             8.384160E-04          1.414552E-02    31
          0                32           2            31   30     1           1.585539E-05      36   21    1             7.047172E-04          1.279013E-02    32
          0                33           2            30   32     2           1.117118E-05      39   18    1             6.862351E-04          1.157992E-02    33
          0                34           2            31   30     1           1.280230E-05      36   21    1             5.873694E-04          1.047554E-02    34
          0                35           2            30   30     2           9.240391E-06      39   18    1             5.586837E-04          9.487638E-03    35

 OUTPUT CONTROL FOR STRESS PERIOD      1   TIME STEP     1
    PRINT BUDGET
    SAVE HEAD FOR ALL LAYERS
 SOLVING FOR ZETA FOR LAYER     1 ZONE     2

     841 UPPER PART EQS.       840 LOWER PART EQS.    BAND WIDTH + 1 =     42
 STRESS PERIOD=   1 TIMESTEP=    1 LAYER=   1 ZONE=   2 ACTIVE CELLS= 1681 NUMBER OF EQUATIONS=    1681
 UBUDSV SAVING "      ZETASRF  1" ON UNIT 55 AT TIME STEP 1, STRESS PERIOD 1


                      VOLUMETRIC SWI ZONE BUDGET FOR ENTIRE MODEL
                     AT END OF TIME STEP    1 IN STRESS PERIOD   1
                                      ZONE     1
  -----------------------------------------------------------------------------------

        CUMULATIVE VOLUMES      L**3       RATES FOR THIS TIME STEP      L**3/T
        ------------------                 ------------------------

              IN:                                      IN:
              ---                                      ---
             BOUNDARIES =      122713.0000            BOUNDARIES =        1681.0000
          CONSTANT HEAD =           0.0000         CONSTANT HEAD =           0.0000
            ZONE CHANGE =           0.0000           ZONE CHANGE =           0.0000
       ZONE CHG TIP/TOE =        1025.0000      ZONE CHG TIP/TOE =          14.0411
            ZONE MIXING =           0.0000           ZONE MIXING =           0.0000

               TOTAL IN =      123738.0000              TOTAL IN =        1695.0411

             OUT:                                     OUT:
             ----                                     ----
             BOUNDARIES =           0.0000            BOUNDARIES =           0.0000
          CONSTANT HEAD =           0.0000         CONSTANT HEAD =           0.0000
            ZONE CHANGE =      122702.1810           ZONE CHANGE =        1680.8518
       ZONE CHG TIP/TOE =        1025.0000      ZONE CHG TIP/TOE =          14.0411
            ZONE MIXING =           0.0000           ZONE MIXING =           0.0000

              TOTAL OUT =      123727.1810             TOTAL OUT =        1694.8929

               IN - OUT =          10.8190              IN - OUT =           0.1482

    PERCENT DISCREPANCY =           0.01     PERCENT DISCREPANCY =           0.01



                      VOLUMETRIC SWI ZONE BUDGET FOR ENTIRE MODEL
                     AT END OF TIME STEP    1 IN STRESS PERIOD   1
                                      ZONE     2
  -----------------------------------------------------------------------------------

        CUMULATIVE VOLUMES      L**3       RATES FOR THIS TIME STEP      L**3/T
        ------------------                 ------------------------

              IN:                                      IN:
              ---                                      ---
             BOUNDARIES =           0.0000            BOUNDARIES =           0.0000
          CONSTANT HEAD =           0.0000         CONSTANT HEAD =           0.0000
            ZONE CHANGE =      122702.1810           ZONE CHANGE =        1680.8518
       ZONE CHG TIP/TOE =        1025.0000      ZONE CHG TIP/TOE =          14.0411
            ZONE MIXING =           0.0000           ZONE MIXING =           0.0000

               TOTAL IN =      123727.1810              TOTAL IN =        1694.8929

             OUT:                                     OUT:
             ----                                     ----
             BOUNDARIES =      122688.8089            BOUNDARIES =        1680.6686
          CONSTANT HEAD =           0.0000         CONSTANT HEAD =           0.0000
            ZONE CHANGE =           0.0000           ZONE CHANGE =           0.0000
       ZONE CHG TIP/TOE =        1025.0000      ZONE CHG TIP/TOE =          14.0411
            ZONE MIXING =           0.0000           ZONE MIXING =           0.0000

              TOTAL OUT =      123713.8089             TOTAL OUT =        1694.7097

               IN - OUT =          13.3720              IN - OUT =           0.1832

    PERCENT DISCREPANCY =           0.01     PERCENT DISCREPANCY =           0.01


    ------------------------------------------------
       NWT REQUIRED           35 NEWTON ITERATIONS 
       AND A TOTAL OF         35 OUTER  ITERATIONS 
       AND A TOTAL OF         47 INNER  ITERATIONS.
    ------------------------------------------------

 HEAD WILL BE SAVED ON UNIT   51 AT END OF TIME STEP     1 IN STRESS PERIOD      1



  -------------------------------------------------------------------------------------
  VOLUMETRIC BUDGET FOR ENTIRE MODEL AT END OF TIME STEP    1 IN STRESS PERIOD      1
  -------------------------------------------------------------------------------------

     CUMULATIVE VOLUMES      L**3       RATES FOR THIS TIME STEP      L**3/T
     ------------------                 ------------------------

           IN:                                      IN:
           ---                                      ---
             STORAGE =           0.0000               STORAGE =           0.0000
       CONSTANT HEAD =           0.0000         CONSTANT HEAD =           0.0000
               WELLS =      122713.0000                 WELLS =        1681.0000
     HEAD DEP BOUNDS =           0.0000       HEAD DEP BOUNDS =           0.0000
          SWIADDTOCH =           0.0000            SWIADDTOCH =           0.0000

            TOTAL IN =      122713.0000              TOTAL IN =        1681.0000

          OUT:                                     OUT:
          ----                                     ----
             STORAGE =           0.0000               STORAGE =           0.0000
       CONSTANT HEAD =           0.0000         CONSTANT HEAD =           0.0000
               WELLS =           0.0000                 WELLS =           0.0000
     HEAD DEP BOUNDS =      122688.8089       HEAD DEP BOUNDS =        1680.6686
          SWIADDTOCH =           0.0000            SWIADDTOCH =           0.0000

           TOTAL OUT =      122688.8089             TOTAL OUT =        1680.6686

            IN - OUT =          24.1911              IN - OUT =           0.3314

 PERCENT DISCREPANCY =           0.02     PERCENT DISCREPANCY =           0.02


          TIME SUMMARY AT END OF TIME STEP     1 IN STRESS PERIOD      1
                    SECONDS     MINUTES      HOURS       DAYS        YEARS
                    -----------------------------------------------------------
   TIME STEP LENGTH 6.30720E+06 1.05120E+05  1752.0      73.000     0.19986    
 STRESS PERIOD TIME 6.30720E+06 1.05120E+05  1752.0      73.000     0.19986    
         TOTAL TIME 6.30720E+06 1.05120E+05  1752.0      73.000     0.19986    
 
 
 SOLVING FOR HEAD 
                                                   Max.-Head-Change                         Max.-Flux-Residual
  Residual-Control     NWT-Iter.   Inner-Iter.     Column Row Layer    Maximum-Head-Change  Column Row Layer    Maximum-Flux-Residual          L2-NORM   Outer-Iter.
          0                 1           3            31   51     1           2.962031E-03      11   11    1             9.999523E-01          1.223812E+01    1
          0                 2           2            45   15     2           2.773318E-04      45   47    2             1.606743E-02          2.516456E-01    2
          0                 3           2            20   19     1           1.283049E-04      47   18    1             8.635852E-03          1.689098E-01    3
          0                 4           2            44   20     2           1.227997E-04      45   19    2             5.987054E-03          1.368725E-01    4
          0                 5           2            41   23     2           8.328301E-05      47   22    1             5.203198E-03          1.170288E-01    5
          0                 6           2            37   25     2           9.895733E-05      50   27    1             3.995621E-03          1.028727E-01    6
          0                 7           2            32   28     2           7.386750E-05      47   30    1             4.097549E-03          9.167205E-02    7
          0                 8           2            31   30     1           9.549367E-05      31   29    2             3.505208E-03          8.228626E-02    8
          0                 9           2            32   30     2           6.454146E-05      47   30    1             3.452382E-03          7.399308E-02    9
          0                10           2            31   31     2           8.579245E-05      31   29    2             3.098835E-03          6.668098E-02    10
                                                   Max.-Head-Change                         Max.-Flux-Residual
  Residual-Control     NWT-Iter.   Inner-Iter.     Column Row Layer    Maximum-Head-Change  Column Row Layer    Maximum-Flux-Residual          L2-NORM   Outer-Iter.
          0                11           2            33   31     2           5.311988E-05      47   30    1             2.930018E-03          6.001683E-02    11
          0                12           2            31   31     2           7.368090E-05      31   29    2             2.608235E-03          5.409786E-02    12
          0                13           2            33   31     2           4.276081E-05      47   30    1             2.467767E-03          4.867094E-02    13
          0                14           2            31   31     2           6.203161E-05      31   29    2             2.150374E-03          4.383874E-02    14
          0                15           2            33   31     2           3.413843E-05      47   30    1             2.054783E-03          3.941398E-02    15
          0                16           2            31   31     2           5.167625E-05      31   29    2             1.755809E-03          3.546472E-02    16
          0                17           2            33   31     2           2.717192E-05      47   30    1             1.690573E-03          3.186005E-02    17
          0                18           2            31   31     2           4.271824E-05      31   29    2             1.426205E-03          2.863751E-02    18
          0                19           2            34   30     2           2.166342E-05      47   30    1             1.374577E-03          2.570582E-02    19
          0                20           2            31   31     2           3.504392E-05      32   32    2             1.157342E-03          2.308418E-02    20
                                                   Max.-Head-Change                         Max.-Flux-Residual
  Residual-Control     NWT-Iter.   Inner-Iter.     Column Row Layer    Maximum-Head-Change  Column Row Layer    Maximum-Flux-Residual          L2-NORM   Outer-Iter.
          0                21           2            34   30     2           1.730104E-05      47   30    1             1.105081E-03          2.070944E-02    21
          0                22           2            31   31     2           2.860011E-05      32   32    2             9.384118E-04          1.858210E-02    22
          0                23           2            34   30     2           1.382009E-05      41   32    1             8.832618E-04          1.666256E-02    23
          0                24           2            31   31     2           2.323031E-05      32   32    2             7.599296E-04          1.494124E-02    24
          0                25           2            35   31     2           1.107069E-05      41   32    1             7.361909E-04          1.339306E-02    25
          0                26           2            31   31     2           1.878879E-05      32   32    2             6.147884E-04          1.200389E-02    26
          0                27           2            35   31     2           8.885154E-06      41   32    1             6.103614E-04          1.075777E-02    27

 OUTPUT CONTROL FOR STRESS PERIOD      1   TIME STEP     2
    PRINT BUDGET
    SAVE HEAD FOR ALL LAYERS
 SOLVING FOR ZETA FOR LAYER     1 ZONE     2

     921 UPPER PART EQS.       924 LOWER PART EQS.    BAND WIDTH + 1 =     44
 STRESS PERIOD=   1 TIMESTEP=    2 LAYER=   1 ZONE=   2 ACTIVE CELLS= 1845 NUMBER OF EQUATIONS=    1845
 UBUDSV SAVING "      ZETASRF  1" ON UNIT 55 AT TIME STEP 2, STRESS PERIOD 1


                      VOLUMETRIC SWI ZONE BUDGET FOR ENTIRE MODEL
                     AT END OF TIME STEP    2 IN STRESS PERIOD   1
                                      ZONE     1
  -----------------------------------------------------------------------------------

        CUMULATIVE VOLUMES      L**3       RATES FOR THIS TIME STEP      L**3/T
        ------------------                 ------------------------

              IN:                                      IN:
              ---                                      ---
             BOUNDARIES =      245426.0000            BOUNDARIES =        1681.0000
          CONSTANT HEAD =           0.0000         CONSTANT HEAD =           0.0000
            ZONE CHANGE =        1178.4844           ZONE CHANGE =          16.1436
       ZONE CHG TIP/TOE =        1025.0000      ZONE CHG TIP/TOE =           0.0000
            ZONE MIXING =           0.0000           ZONE MIXING =           0.0000

               TOTAL IN =      247629.4844              TOTAL IN =        1697.1436

             OUT:                                     OUT:
             ----                                     ----
             BOUNDARIES =       38974.7895            BOUNDARIES =         533.9012
          CONSTANT HEAD =           0.0000         CONSTANT HEAD =           0.0000
            ZONE CHANGE =      226487.4289           ZONE CHANGE =        1421.7157
       ZONE CHG TIP/TOE =        1025.0000      ZONE CHG TIP/TOE =           0.0000
            ZONE MIXING =           0.0000           ZONE MIXING =           0.0000

              TOTAL OUT =      266487.2184             TOTAL OUT =        1955.6170

               IN - OUT =      -18857.7340              IN - OUT =        -258.4733

    PERCENT DISCREPANCY =          -7.34     PERCENT DISCREPANCY =         -14.15



                      VOLUMETRIC SWI ZONE BUDGET FOR ENTIRE MODEL
                     AT END OF TIME STEP    2 IN STRESS PERIOD   1
                                      ZONE     2
  -----------------------------------------------------------------------------------

        CUMULATIVE VOLUMES      L**3       RATES FOR THIS TIME STEP      L**3/T
        ------------------                 ------------------------

              IN:                                      IN:
              ---                                      ---
             BOUNDARIES =           0.0000            BOUNDARIES =           0.0000
          CONSTANT HEAD =           0.0000         CONSTANT HEAD =           0.0000
            ZONE CHANGE =      226487.4289           ZONE CHANGE =        1421.7157
       ZONE CHG TIP/TOE =       19905.7098      ZONE CHG TIP/TOE =         258.6399
            ZONE MIXING =           0.0000           ZONE MIXING =           0.0000

               TOTAL IN =      246393.1387              TOTAL IN =        1680.3556

             OUT:                                     OUT:
             ----                                     ----
             BOUNDARIES =      206399.6628            BOUNDARIES =        1146.7240
          CONSTANT HEAD =           0.0000         CONSTANT HEAD =           0.0000
            ZONE CHANGE =       20059.1942           ZONE CHANGE =         274.7835
       ZONE CHG TIP/TOE =        1025.0000      ZONE CHG TIP/TOE =           0.0000
            ZONE MIXING =           0.0000           ZONE MIXING =           0.0000

              TOTAL OUT =      227483.8570             TOTAL OUT =        1421.5075

               IN - OUT =       18909.2818              IN - OUT =         258.8481

    PERCENT DISCREPANCY =           7.98     PERCENT DISCREPANCY =          16.69


    ------------------------------------------------
       NWT REQUIRED           27 NEWTON ITERATIONS 
       AND A TOTAL OF         27 OUTER  ITERATIONS 
       AND A TOTAL OF         28 INNER  ITERATIONS.
    ------------------------------------------------

 HEAD WILL BE SAVED ON UNIT   51 AT END OF TIME STEP     2 IN STRESS PERIOD      1



  -------------------------------------------------------------------------------------
  VOLUMETRIC BUDGET FOR ENTIRE MODEL AT END OF TIME STEP    2 IN STRESS PERIOD      1
  -------------------------------------------------------------------------------------

     CUMULATIVE VOLUMES      L**3       RATES FOR THIS TIME STEP      L**3/T
     ------------------                 ------------------------

           IN:                                      IN:
           ---                                      ---
             STORAGE =           0.0000               STORAGE =           0.0000
       CONSTANT HEAD =           0.0000         CONSTANT HEAD =           0.0000
               WELLS =      245426.0000                 WELLS =        1681.0000
     HEAD DEP BOUNDS =           0.0000       HEAD DEP BOUNDS =           0.0000
          SWIADDTOCH =           0.0000            SWIADDTOCH =           0.0000

            TOTAL IN =      245426.0000              TOTAL IN =        1681.0000

          OUT:                                     OUT:
          ----                                     ----
             STORAGE =           0.0000               STORAGE =           0.0000
       CONSTANT HEAD =           0.0000         CONSTANT HEAD =           0.0000
               WELLS =           0.0000                 WELLS =           0.0000
     HEAD DEP BOUNDS =      245374.4523       HEAD DEP BOUNDS =        1680.6253
          SWIADDTOCH =           0.0000            SWIADDTOCH =           0.0000

           TOTAL OUT =      245374.4523             TOTAL OUT =        1680.6253

            IN - OUT =          51.5477              IN - OUT =           0.3747

 PERCENT DISCREPANCY =           0.02     PERCENT DISCREPANCY =           0.02


          TIME SUMMARY AT END OF TIME STEP     2 IN STRESS PERIOD      1
                    SECONDS     MINUTES      HOURS       DAYS        YEARS
                    -----------------------------------------------------------
   TIME STEP LENGTH 6.30720E+06 1.05120E+05  1752.0      73.000     0.19986    
 STRESS PERIOD TIME 1.26144E+07 2.10240E+05  3504.0      146.00     0.39973    
         TOTAL TIME 1.26144E+07 2.10240E+05  3504.0      146.00     0.39973    
 
 
 SOLVING FOR HEAD 
                                                   Max.-Head-Change                         Max.-Flux-Residual
  Residual-Control     NWT-Iter.   Inner-Iter.     Column Row Layer    Maximum-Head-Change  Column Row Layer    Maximum-Flux-Residual          L2-NORM   Outer-Iter.
          0                 1           3            48   48     1           2.993779E-03      10   49    1            -5.170982E-01          8.609375E+00    1
          0                 2           2            44   16     2           5.331442E-04      18   14    2             2.393819E-02          3.894550E-01    2
          0                 3           2            21   20     1           1.981141E-04      46   43    1             1.364903E-02          2.773615E-01    3
          0                 4           2            43   21     2           2.324030E-04      44   20    2             9.700898E-03          2.292575E-01    4
          0                 5           2            31   24     1           1.381049E-04      46   35    1             8.899702E-03          1.996695E-01    5
          0                 6           2            34   28     2           1.990803E-04      44   28    2             6.944472E-03          1.764920E-01    6
          0                 7           2            31   30     1           1.280876E-04      46   31    1             7.181188E-03          1.580280E-01    7
          0                 8           2            31   31     2           1.813709E-04      30   30    2             6.310145E-03          1.415543E-01    8
          0                 9           2            31   31     2           1.100528E-04      46   31    1             6.031563E-03          1.274219E-01    9
          0                10           2            31   31     2           1.542777E-04      30   30    2             5.411872E-03          1.144625E-01    10
                                                   Max.-Head-Change                         Max.-Flux-Residual
  Residual-Control     NWT-Iter.   Inner-Iter.     Column Row Layer    Maximum-Head-Change  Column Row Layer    Maximum-Flux-Residual          L2-NORM   Outer-Iter.
          0                11           2            31   31     2           9.090831E-05      46   31    1             5.081167E-03          1.031049E-01    11
          0                12           2            30   30     2           1.279109E-04      30   30    2             4.495737E-03          9.269498E-02    12
          0                13           2            32   32     2           7.390198E-05      46   31    1             4.262964E-03          8.348915E-02    13
          0                14           2            30   30     2           1.050294E-04      30   30    2             3.688358E-03          7.507823E-02    14
          0                15           2            32   32     2           5.972529E-05      46   31    1             3.552456E-03          6.760863E-02    15
          0                16           2            30   30     2           8.597238E-05      37   31    2             3.011056E-03          6.079863E-02    16
          0                17           2            32   32     2           4.813549E-05      46   35    1             2.943795E-03          5.473473E-02    17
          0                18           2            30   30     2           7.024767E-05      37   31    2             2.467012E-03          4.921713E-02    18
          0                19           2            33   31     2           3.885968E-05      46   35    1             2.423170E-03          4.429543E-02    19
          0                20           2            30   30     2           5.731418E-05      37   31    2             2.014514E-03          3.982490E-02    20
                                                   Max.-Head-Change                         Max.-Flux-Residual
  Residual-Control     NWT-Iter.   Inner-Iter.     Column Row Layer    Maximum-Head-Change  Column Row Layer    Maximum-Flux-Residual          L2-NORM   Outer-Iter.
          0                21           2            33   31     2           3.136516E-05      46   35    1             1.980599E-03          3.583248E-02    21
          0                22           2            30   30     2           4.669422E-05      37   31    2             1.640107E-03          3.221154E-02    22
          0                23           2            33   31     2           2.531373E-05      46   35    1             1.608084E-03          2.897528E-02    23
          0                24           2            30   30     2           3.798838E-05      37   31    2             1.331606E-03          2.604393E-02    24
          0                25           2            33   31     2           2.042801E-05      46   35    1             1.297504E-03          2.342252E-02    25
          0                26           2            30   30     2           3.086143E-05      37   31    2             1.078372E-03          2.105077E-02    26
          0                27           2            33   31     2           1.648274E-05      46   35    1             1.040845E-03          1.892902E-02    27
          0                28           2            30   30     2           2.503842E-05      37   31    2             8.712413E-04          1.701105E-02    28
          0                29           2            33   31     2           1.329698E-05      39   34    1             8.368528E-04          1.529484E-02    29
          0                30           2            31   31     2           2.029548E-05      31   29    2             7.033402E-04          1.374456E-02    30
                                                   Max.-Head-Change                         Max.-Flux-Residual
  Residual-Control     NWT-Iter.   Inner-Iter.     Column Row Layer    Maximum-Head-Change  Column Row Layer    Maximum-Flux-Residual          L2-NORM   Outer-Iter.
          0                31           2            33   31     2           1.072506E-05      39   34    1             6.864361E-04          1.235720E-02    31
          0                32           2            31   31     2           1.643949E-05      31   29    2             5.720321E-04          1.110462E-02    32
          0                33           2            34   30     2           8.676861E-06      39   34    1             5.606513E-04          9.983657E-03    33

 OUTPUT CONTROL FOR STRESS PERIOD      1   TIME STEP     3
    PRINT BUDGET
    SAVE HEAD FOR ALL LAYERS
 SOLVING FOR ZETA FOR LAYER     1 ZONE     2

     841 UPPER PART EQS.       840 LOWER PART EQS.    BAND WIDTH + 1 =     42
 STRESS PERIOD=   1 TIMESTEP=    3 LAYER=   1 ZONE=   2 ACTIVE CELLS= 1681 NUMBER OF EQUATIONS=    1681
 UBUDSV SAVING "      ZETASRF  1" ON UNIT 55 AT TIME STEP 3, STRESS PERIOD 1


                      VOLUMETRIC SWI ZONE BUDGET FOR ENTIRE MODEL
                     AT END OF TIME STEP    3 IN STRESS PERIOD   1
                                      ZONE     1
  -----------------------------------------------------------------------------------

        CUMULATIVE VOLUMES      L**3       RATES FOR THIS TIME STEP      L**3/T
        ------------------                 ------------------------

              IN:                                      IN:
              ---                                      ---
             BOUNDARIES =      368139.0000            BOUNDARIES =        1681.0000
          CONSTANT HEAD =           0.0000         CONSTANT HEAD =           0.0000
            ZONE CHANGE =        1178.4844           ZONE CHANGE =           0.0000
       ZONE CHG TIP/TOE =        2050.0000      ZONE CHG TIP/TOE =          14.0411
            ZONE MIXING =           0.0000           ZONE MIXING =           0.0000

               TOTAL IN =      371367.4844              TOTAL IN =        1695.0411

             OUT:                                     OUT:
             ----                                     ----
             BOUNDARIES =       38974.7895            BOUNDARIES =           0.0000
          CONSTANT HEAD =           0.0000         CONSTANT HEAD =           0.0000
            ZONE CHANGE =      349189.4076           ZONE CHANGE =        1680.8490
       ZONE CHG TIP/TOE =        2050.0000      ZONE CHG TIP/TOE =          14.0411
            ZONE MIXING =           0.0000           ZONE MIXING =           0.0000

              TOTAL OUT =      390214.1971             TOTAL OUT =        1694.8901

               IN - OUT =      -18846.7127              IN - OUT =           0.1510

    PERCENT DISCREPANCY =          -4.95     PERCENT DISCREPANCY =           0.01



                      VOLUMETRIC SWI ZONE BUDGET FOR ENTIRE MODEL
                     AT END OF TIME STEP    3 IN STRESS PERIOD   1
                                      ZONE     2
  -----------------------------------------------------------------------------------

        CUMULATIVE VOLUMES      L**3       RATES FOR THIS TIME STEP      L**3/T
        ------------------                 ------------------------

              IN:                                      IN:
              ---                                      ---
             BOUNDARIES =           0.0000            BOUNDARIES =           0.0000
          CONSTANT HEAD =           0.0000         CONSTANT HEAD =           0.0000
            ZONE CHANGE =      349189.4076           ZONE CHANGE =        1680.8490
       ZONE CHG TIP/TOE =       20930.7098      ZONE CHG TIP/TOE =          14.0411
            ZONE MIXING =           0.0000           ZONE MIXING =           0.0000

               TOTAL IN =      370120.1174              TOTAL IN =        1694.8901

             OUT:                                     OUT:
             ----                                     ----
             BOUNDARIES =      329087.2243            BOUNDARIES =        1680.6515
          CONSTANT HEAD =           0.0000         CONSTANT HEAD =           0.0000
            ZONE CHANGE =       20059.1942           ZONE CHANGE =           0.0000
       ZONE CHG TIP/TOE =        2050.0000      ZONE CHG TIP/TOE =          14.0411
            ZONE MIXING =           0.0000           ZONE MIXING =           0.0000

              TOTAL OUT =      351196.4186             TOTAL OUT =        1694.6926

               IN - OUT =       18923.6988              IN - OUT =           0.1975

    PERCENT DISCREPANCY =           5.25     PERCENT DISCREPANCY =           0.01


    ------------------------------------------------
       NWT REQUIRED           33 NEWTON ITERATIONS 
       AND A TOTAL OF         33 OUTER  ITERATIONS 
       AND A TOTAL OF         34 INNER  ITERATIONS.
    ------------------------------------------------

 HEAD WILL BE SAVED ON UNIT   51 AT END OF TIME STEP     3 IN STRESS PERIOD      1



  -------------------------------------------------------------------------------------
  VOLUMETRIC BUDGET FOR ENTIRE MODEL AT END OF TIME STEP    3 IN STRESS PERIOD      1
  -------------------------------------------------------------------------------------

     CUMULATIVE VOLUMES      L**3       RATES FOR THIS TIME STEP      L**3/T
     ------------------                 ------------------------

           IN:                                      IN:
           ---                                      ---
             STORAGE =           0.0000               STORAGE =           0.0000
       CONSTANT HEAD =           0.0000         CONSTANT HEAD =           0.0000
               WELLS =      368139.0000                 WELLS =        1681.0000
     HEAD DEP BOUNDS =           0.0000       HEAD DEP BOUNDS =           0.0000
          SWIADDTOCH =           0.0000            SWIADDTOCH =           0.0000

            TOTAL IN =      368139.0000              TOTAL IN =        1681.0000

          OUT:                                     OUT:
          ----                                     ----
             STORAGE =           0.0000               STORAGE =           0.0000
       CONSTANT HEAD =           0.0000         CONSTANT HEAD =           0.0000
               WELLS =           0.0000                 WELLS =           0.0000
     HEAD DEP BOUNDS =      368062.0138       HEAD DEP BOUNDS =        1680.6515
          SWIADDTOCH =           0.0000            SWIADDTOCH =           0.0000

           TOTAL OUT =      368062.0138             TOTAL OUT =        1680.6515

            IN - OUT =          76.9862              IN - OUT =           0.3485

 PERCENT DISCREPANCY =           0.02     PERCENT DISCREPANCY =           0.02


          TIME SUMMARY AT END OF TIME STEP     3 IN STRESS PERIOD      1
                    SECONDS     MINUTES      HOURS       DAYS        YEARS
                    -----------------------------------------------------------
   TIME STEP LENGTH 6.30720E+06 1.05120E+05  1752.0      73.000     0.19986    
 STRESS PERIOD TIME 1.89216E+07 3.15360E+05  5256.0      219.00     0.59959    
         TOTAL TIME 1.89216E+07 3.15360E+05  5256.0      219.00     0.59959    
 
 
 SOLVING FOR HEAD 
                                                   Max.-Head-Change                         Max.-Flux-Residual
  Residual-Control     NWT-Iter.   Inner-Iter.     Column Row Layer    Maximum-Head-Change  Column Row Layer    Maximum-Flux-Residual          L2-NORM   Outer-Iter.
          0                 1           3            31   51     1           3.044245E-03      11   11    1             9.858890E-01          1.227340E+01    1
          0                 2           2            45   15     2           2.298648E-04      45   47    2             1.419862E-02          2.221083E-01    2
          0                 3           2            19   18     1           1.132112E-04      47   18    1             7.492314E-03          1.473906E-01    3
          0                 4           2            44   20     2           1.051653E-04      50   23    1             5.237024E-03          1.191787E-01    4
          0                 5           2            41   23     2           7.327727E-05      47   22    1             4.509050E-03          1.016941E-01    5
          0                 6           2            26   23     1           8.481701E-05      50   27    1             3.490752E-03          8.936854E-02    6
          0                 7           2            32   28     2           6.424904E-05      47   30    1             3.557727E-03          7.957284E-02    7
          0                 8           2            31   30     1           8.204609E-05      31   29    2             3.031843E-03          7.146232E-02    8
          0                 9           2            33   31     2           5.622611E-05      47   30    1             2.997214E-03          6.423274E-02    9
          0                10           2            31   31     2           7.382496E-05      31   29    2             2.688821E-03          5.792745E-02    10
                                                   Max.-Head-Change                         Max.-Flux-Residual
  Residual-Control     NWT-Iter.   Inner-Iter.     Column Row Layer    Maximum-Head-Change  Column Row Layer    Maximum-Flux-Residual          L2-NORM   Outer-Iter.
          0                11           2            33   31     2           4.631412E-05      47   30    1             2.538688E-03          5.213115E-02    11
          0                12           2            31   31     2           6.359927E-05      31   29    2             2.266740E-03          4.702202E-02    12
          0                13           2            33   31     2           3.730773E-05      47   30    1             2.134149E-03          4.229510E-02    13
          0                14           2            31   31     2           5.357202E-05      31   29    2             1.870333E-03          3.812369E-02    14
          0                15           2            33   31     2           2.981451E-05      47   30    1             1.772433E-03          3.426960E-02    15
          0                16           2            31   31     2           4.462148E-05      31   29    2             1.528011E-03          3.085908E-02    16
          0                17           2            33   31     2           2.375522E-05      47   30    1             1.454180E-03          2.771996E-02    17
          0                18           2            31   31     2           3.688124E-05      32   32    2             1.242481E-03          2.493590E-02    18
          0                19           2            34   30     2           1.896037E-05      47   30    1             1.179082E-03          2.238438E-02    19
          0                20           2            31   31     2           3.030433E-05      32   32    2             1.010180E-03          2.011732E-02    20
                                                   Max.-Head-Change                         Max.-Flux-Residual
  Residual-Control     NWT-Iter.   Inner-Iter.     Column Row Layer    Maximum-Head-Change  Column Row Layer    Maximum-Flux-Residual          L2-NORM   Outer-Iter.
          0                21           2            34   30     2           1.514267E-05      47   30    1             9.455434E-04          1.804793E-02    21
          0                22           2            31   31     2           2.477226E-05      32   32    2             8.197782E-04          1.620674E-02    22
          0                23           2            35   31     2           1.210303E-05      41   32    1             7.780117E-04          1.453149E-02    23
          0                24           2            31   31     2           2.013381E-05      32   32    2             6.643298E-04          1.304066E-02    24
          0                25           2            35   31     2           9.711708E-06      41   32    1             6.484798E-04          1.168957E-02    25

 OUTPUT CONTROL FOR STRESS PERIOD      1   TIME STEP     4
    PRINT BUDGET
    SAVE HEAD FOR ALL LAYERS
 SOLVING FOR ZETA FOR LAYER     1 ZONE     2

     921 UPPER PART EQS.       924 LOWER PART EQS.    BAND WIDTH + 1 =     44
 STRESS PERIOD=   1 TIMESTEP=    4 LAYER=   1 ZONE=   2 ACTIVE CELLS= 1845 NUMBER OF EQUATIONS=    1845
 UBUDSV SAVING "      ZETASRF  1" ON UNIT 55 AT TIME STEP 4, STRESS PERIOD 1


                      VOLUMETRIC SWI ZONE BUDGET FOR ENTIRE MODEL
                     AT END OF TIME STEP    4 IN STRESS PERIOD   1
                                      ZONE     1
  -----------------------------------------------------------------------------------

        CUMULATIVE VOLUMES      L**3       RATES FOR THIS TIME STEP      L**3/T
        ------------------                 ------------------------

              IN:                                      IN:
              ---                                      ---
             BOUNDARIES =      490852.0000            BOUNDARIES =        1681.0000
          CONSTANT HEAD =           0.0000         CONSTANT HEAD =           0.0000
            ZONE CHANGE =        2274.2721           ZONE CHANGE =          15.0108
       ZONE CHG TIP/TOE =        2050.0000      ZONE CHG TIP/TOE =           0.0000
            ZONE MIXING =           0.0000           ZONE MIXING =           0.0000

               TOTAL IN =      495176.2721              TOTAL IN =        1696.0108

             OUT:                                     OUT:
             ----                                     ----
             BOUNDARIES =       77969.3722            BOUNDARIES =         534.1724
          CONSTANT HEAD =           0.0000         CONSTANT HEAD =           0.0000
            ZONE CHANGE =      452276.5574           ZONE CHANGE =        1412.1527
       ZONE CHG TIP/TOE =        2050.0000      ZONE CHG TIP/TOE =           0.0000
            ZONE MIXING =           0.0000           ZONE MIXING =           0.0000

              TOTAL OUT =      532295.9296             TOTAL OUT =        1946.3251

               IN - OUT =      -37119.6575              IN - OUT =        -250.3143

    PERCENT DISCREPANCY =          -7.23     PERCENT DISCREPANCY =         -13.74



                      VOLUMETRIC SWI ZONE BUDGET FOR ENTIRE MODEL
                     AT END OF TIME STEP    4 IN STRESS PERIOD   1
                                      ZONE     2
  -----------------------------------------------------------------------------------

        CUMULATIVE VOLUMES      L**3       RATES FOR THIS TIME STEP      L**3/T
        ------------------                 ------------------------

              IN:                                      IN:
              ---                                      ---
             BOUNDARIES =           0.0000            BOUNDARIES =           0.0000
          CONSTANT HEAD =           0.0000         CONSTANT HEAD =           0.0000
            ZONE CHANGE =      452276.5574           ZONE CHANGE =        1412.1527
       ZONE CHG TIP/TOE =       39216.8458      ZONE CHG TIP/TOE =         250.4950
            ZONE MIXING =           0.0000           ZONE MIXING =           0.0000

               TOTAL IN =      491493.4032              TOTAL IN =        1662.6478

             OUT:                                     OUT:
             ----                                     ----
             BOUNDARIES =      412775.8993            BOUNDARIES =        1146.4202
          CONSTANT HEAD =           0.0000         CONSTANT HEAD =           0.0000
            ZONE CHANGE =       39441.1179           ZONE CHANGE =         265.5058
       ZONE CHG TIP/TOE =        2050.0000      ZONE CHG TIP/TOE =           0.0000
            ZONE MIXING =           0.0000           ZONE MIXING =           0.0000

              TOTAL OUT =      454267.0172             TOTAL OUT =        1411.9260

               IN - OUT =       37226.3860              IN - OUT =         250.7217

    PERCENT DISCREPANCY =           7.87     PERCENT DISCREPANCY =          16.31


    ------------------------------------------------
       NWT REQUIRED           25 NEWTON ITERATIONS 
       AND A TOTAL OF         25 OUTER  ITERATIONS 
       AND A TOTAL OF         26 INNER  ITERATIONS.
    ------------------------------------------------

 HEAD WILL BE SAVED ON UNIT   51 AT END OF TIME STEP     4 IN STRESS PERIOD      1



  -------------------------------------------------------------------------------------
  VOLUMETRIC BUDGET FOR ENTIRE MODEL AT END OF TIME STEP    4 IN STRESS PERIOD      1
  -------------------------------------------------------------------------------------

     CUMULATIVE VOLUMES      L**3       RATES FOR THIS TIME STEP      L**3/T
     ------------------                 ------------------------

           IN:                                      IN:
           ---                                      ---
             STORAGE =           0.0000               STORAGE =           0.0000
       CONSTANT HEAD =           0.0000         CONSTANT HEAD =           0.0000
               WELLS =      490852.0000                 WELLS =        1681.0000
     HEAD DEP BOUNDS =           0.0000       HEAD DEP BOUNDS =           0.0000
          SWIADDTOCH =           0.0000            SWIADDTOCH =           0.0000

            TOTAL IN =      490852.0000              TOTAL IN =        1681.0000

          OUT:                                     OUT:
          ----                                     ----
             STORAGE =           0.0000               STORAGE =           0.0000
       CONSTANT HEAD =           0.0000         CONSTANT HEAD =           0.0000
               WELLS =           0.0000                 WELLS =           0.0000
     HEAD DEP BOUNDS =      490745.2715       HEAD DEP BOUNDS =        1680.5926
          SWIADDTOCH =           0.0000            SWIADDTOCH =           0.0000

           TOTAL OUT =      490745.2715             TOTAL OUT =        1680.5926

            IN - OUT =         106.7285              IN - OUT =           0.4074

 PERCENT DISCREPANCY =           0.02     PERCENT DISCREPANCY =           0.02


          TIME SUMMARY AT END OF TIME STEP     4 IN STRESS PERIOD      1
                    SECONDS     MINUTES      HOURS       DAYS        YEARS
                    -----------------------------------------------------------
   TIME STEP LENGTH 6.30720E+06 1.05120E+05  1752.0      73.000     0.19986    
 STRESS PERIOD TIME 2.52288E+07 4.20480E+05  7008.0      292.00     0.79945    
         TOTAL TIME 2.52288E+07 4.20480E+05  7008.0      292.00     0.79945    
 
 
 SOLVING FOR HEAD 
                                                   Max.-Head-Change                         Max.-Flux-Residual
  Residual-Control     NWT-Iter.   Inner-Iter.     Column Row Layer    Maximum-Head-Change  Column Row Layer    Maximum-Flux-Residual          L2-NORM   Outer-Iter.
          0                 1           3            48   48     1           3.056951E-03      10   49    1            -5.770598E-01          8.891821E+00    1
          0                 2           2            44   16     2           5.751448E-04      18   14    2             2.543141E-02          4.153375E-01    2
          0                 3           2            21   20     1           2.099393E-04      46   43    1             1.464538E-02          2.947450E-01    3
          0                 4           2            43   21     2           2.460371E-04      44   20    2             1.033459E-02          2.431078E-01    4
          0                 5           2            31   24     1           1.474950E-04      46   35    1             9.421615E-03          2.115579E-01    5
          0                 6           2            34   28     2           2.055004E-04      44   28    2             7.389176E-03          1.870415E-01    6
          0                 7           2            31   30     1           1.391519E-04      46   31    1             7.536486E-03          1.675754E-01    7
          0                 8           2            31   31     2           1.834262E-04      30   30    2             6.682798E-03          1.502759E-01    8
          0                 9           2            31   31     2           1.218112E-04      46   31    1             6.284165E-03          1.354583E-01    9
          0                10           2            31   31     2           1.534869E-04      30   30    2             5.744112E-03          1.219116E-01    10
                                                   Max.-Head-Change                         Max.-Flux-Residual
  Residual-Control     NWT-Iter.   Inner-Iter.     Column Row Layer    Maximum-Head-Change  Column Row Layer    Maximum-Flux-Residual          L2-NORM   Outer-Iter.
          0                11           2            31   31     2           1.024221E-04      46   31    1             5.263943E-03          1.100430E-01    11
          0                12           2            30   30     2           1.258933E-04      30   30    2             4.791941E-03          9.918024E-02    12
          0                13           2            32   32     2           8.461166E-05      46   31    1             4.400326E-03          8.955852E-02    13
          0                14           2            30   30     2           1.026671E-04      30   30    2             3.953087E-03          8.078089E-02    14
          0                15           2            32   32     2           6.937886E-05      46   31    1             3.661915E-03          7.295871E-02    15
          0                16           2            30   30     2           8.373656E-05      37   31    2             3.260596E-03          6.584123E-02    16
          0                17           2            32   32     2           5.664999E-05      46   31    1             3.032342E-03          5.947080E-02    17
          0                18           2            30   30     2           6.839140E-05      37   31    2             2.691979E-03          5.368703E-02    18
          0                19           2            33   31     2           4.625480E-05      46   35    1             2.500216E-03          4.849352E-02    19
          0                20           2            30   30     2           5.592907E-05      37   31    2             2.216422E-03          4.378715E-02    20
                                                   Max.-Head-Change                         Max.-Flux-Residual
  Residual-Control     NWT-Iter.   Inner-Iter.     Column Row Layer    Maximum-Head-Change  Column Row Layer    Maximum-Flux-Residual          L2-NORM   Outer-Iter.
          0                21           2            33   31     2           3.772066E-05      46   35    1             2.053257E-03          3.955086E-02    21
          0                22           2            30   30     2           4.578970E-05      37   31    2             1.820206E-03          3.571755E-02    22
          0                23           2            33   31     2           3.073052E-05      46   35    1             1.677911E-03          3.226070E-02    23
          0                24           2            30   30     2           3.751844E-05      37   31    2             1.491108E-03          2.913642E-02    24
          0                25           2            33   31     2           2.501391E-05      34   30    2             1.374442E-03          2.631498E-02    25
          0                26           2            30   30     2           3.075632E-05      37   31    2             1.218555E-03          2.376740E-02    26
          0                27           2            33   31     2           2.034433E-05      34   30    2             1.133268E-03          2.146432E-02    27
          0                28           2            30   30     2           2.521767E-05      38   30    2             9.947541E-04          1.938634E-02    28
          0                29           2            33   31     2           1.653401E-05      34   30    2             9.328968E-04          1.750638E-02    29
          0                30           2            31   31     2           2.068951E-05      38   30    2             8.160523E-04          1.581113E-02    30
                                                   Max.-Head-Change                         Max.-Flux-Residual
  Residual-Control     NWT-Iter.   Inner-Iter.     Column Row Layer    Maximum-Head-Change  Column Row Layer    Maximum-Flux-Residual          L2-NORM   Outer-Iter.
          0                31           2            33   31     2           1.342805E-05      34   30    2             7.665297E-04          1.427667E-02    31
          0                32           2            31   31     2           1.697252E-05      38   30    2             6.679630E-04          1.289353E-02    32
          0                33           2            34   30     2           1.092375E-05      40   33    1             6.338157E-04          1.164125E-02    33
          0                34           2            31   31     2           1.391782E-05      38   30    2             5.455678E-04          1.051276E-02    34
          0                35           2            34   30     2           8.889617E-06      40   33    1             5.271332E-04          9.490990E-03    35

 OUTPUT CONTROL FOR STRESS PERIOD      1   TIME STEP     5
    PRINT BUDGET
    SAVE HEAD FOR ALL LAYERS
 SOLVING FOR ZETA FOR LAYER     1 ZONE     2

     841 UPPER PART EQS.       840 LOWER PART EQS.    BAND WIDTH + 1 =     42
 STRESS PERIOD=   1 TIMESTEP=    5 LAYER=   1 ZONE=   2 ACTIVE CELLS= 1681 NUMBER OF EQUATIONS=    1681
 UBUDSV SAVING "      ZETASRF  1" ON UNIT 55 AT TIME STEP 5, STRESS PERIOD 1


                      VOLUMETRIC SWI ZONE BUDGET FOR ENTIRE MODEL
                     AT END OF TIME STEP    5 IN STRESS PERIOD   1
                                      ZONE     1
  -----------------------------------------------------------------------------------

        CUMULATIVE VOLUMES      L**3       RATES FOR THIS TIME STEP      L**3/T
        ------------------                 ------------------------

              IN:                                      IN:
              ---                                      ---
             BOUNDARIES =      613565.0000            BOUNDARIES =        1681.0000
          CONSTANT HEAD =           0.0000         CONSTANT HEAD =           0.0000
            ZONE CHANGE =        2274.2721           ZONE CHANGE =           0.0000
       ZONE CHG TIP/TOE =        3075.0000      ZONE CHG TIP/TOE =          14.0411
            ZONE MIXING =           0.0000           ZONE MIXING =           0.0000

               TOTAL IN =      618914.2721              TOTAL IN =        1695.0411

             OUT:                                     OUT:
             ----                                     ----
             BOUNDARIES =       77969.3722            BOUNDARIES =           0.0000
          CONSTANT HEAD =           0.0000         CONSTANT HEAD =           0.0000
            ZONE CHANGE =      574979.0929           ZONE CHANGE =        1680.8567
       ZONE CHG TIP/TOE =        3075.0000      ZONE CHG TIP/TOE =          14.0411
            ZONE MIXING =           0.0000           ZONE MIXING =           0.0000

              TOTAL OUT =      656023.4651             TOTAL OUT =        1694.8977

               IN - OUT =      -37109.1930              IN - OUT =           0.1433

    PERCENT DISCREPANCY =          -5.82     PERCENT DISCREPANCY =           0.01



                      VOLUMETRIC SWI ZONE BUDGET FOR ENTIRE MODEL
                     AT END OF TIME STEP    5 IN STRESS PERIOD   1
                                      ZONE     2
  -----------------------------------------------------------------------------------

        CUMULATIVE VOLUMES      L**3       RATES FOR THIS TIME STEP      L**3/T
        ------------------                 ------------------------

              IN:                                      IN:
              ---                                      ---
             BOUNDARIES =           0.0000            BOUNDARIES =           0.0000
          CONSTANT HEAD =           0.0000         CONSTANT HEAD =           0.0000
            ZONE CHANGE =      574979.0929           ZONE CHANGE =        1680.8567
       ZONE CHG TIP/TOE =       40241.8458      ZONE CHG TIP/TOE =          14.0411
            ZONE MIXING =           0.0000           ZONE MIXING =           0.0000

               TOTAL IN =      615220.9387              TOTAL IN =        1694.8977

             OUT:                                     OUT:
             ----                                     ----
             BOUNDARIES =      535464.6728            BOUNDARIES =        1680.6681
          CONSTANT HEAD =           0.0000         CONSTANT HEAD =           0.0000
            ZONE CHANGE =       39441.1179           ZONE CHANGE =           0.0000
       ZONE CHG TIP/TOE =        3075.0000      ZONE CHG TIP/TOE =          14.0411
            ZONE MIXING =           0.0000           ZONE MIXING =           0.0000

              TOTAL OUT =      577980.7907             TOTAL OUT =        1694.7092

               IN - OUT =       37240.1480              IN - OUT =           0.1885

    PERCENT DISCREPANCY =           6.24     PERCENT DISCREPANCY =           0.01


    ------------------------------------------------
       NWT REQUIRED           35 NEWTON ITERATIONS 
       AND A TOTAL OF         35 OUTER  ITERATIONS 
       AND A TOTAL OF         36 INNER  ITERATIONS.
    ------------------------------------------------

 HEAD WILL BE SAVED ON UNIT   51 AT END OF TIME STEP     5 IN STRESS PERIOD      1



  -------------------------------------------------------------------------------------
  VOLUMETRIC BUDGET FOR ENTIRE MODEL AT END OF TIME STEP    5 IN STRESS PERIOD      1
  -------------------------------------------------------------------------------------

     CUMULATIVE VOLUMES      L**3       RATES FOR THIS TIME STEP      L**3/T
     ------------------                 ------------------------

           IN:                                      IN:
           ---                                      ---
             STORAGE =           0.0000               STORAGE =           0.0000
       CONSTANT HEAD =           0.0000         CONSTANT HEAD =           0.0000
               WELLS =      613565.0000                 WELLS =        1681.0000
     HEAD DEP BOUNDS =           0.0000       HEAD DEP BOUNDS =           0.0000
          SWIADDTOCH =           0.0000            SWIADDTOCH =           0.0000

            TOTAL IN =      613565.0000              TOTAL IN =        1681.0000

          OUT:                                     OUT:
          ----                                     ----
             STORAGE =           0.0000               STORAGE =           0.0000
       CONSTANT HEAD =           0.0000         CONSTANT HEAD =           0.0000
               WELLS =           0.0000                 WELLS =           0.0000
     HEAD DEP BOUNDS =      613434.0450       HEAD DEP BOUNDS =        1680.6681
          SWIADDTOCH =           0.0000            SWIADDTOCH =           0.0000

           TOTAL OUT =      613434.0450             TOTAL OUT =        1680.6681

            IN - OUT =         130.9550              IN - OUT =           0.3319

 PERCENT DISCREPANCY =           0.02     PERCENT DISCREPANCY =           0.02


          TIME SUMMARY AT END OF TIME STEP     5 IN STRESS PERIOD      1
                    SECONDS     MINUTES      HOURS       DAYS        YEARS
                    -----------------------------------------------------------
   TIME STEP LENGTH 6.30720E+06 1.05120E+05  1752.0      73.000     0.19986    
 STRESS PERIOD TIME 3.15360E+07 5.25600E+05  8760.0      365.00     0.99932    
         TOTAL TIME 3.15360E+07 5.25600E+05  8760.0      365.00     0.99932    
 
 
 SOLVING FOR HEAD 
                                                   Max.-Head-Change                         Max.-Flux-Residual
  Residual-Control     NWT-Iter.   Inner-Iter.     Column Row Layer    Maximum-Head-Change  Column Row Layer    Maximum-Flux-Residual          L2-NORM   Outer-Iter.
          0                 1           3            31   51     1           3.105162E-03      11   11    1             9.629088E-01          1.220546E+01    1
          0                 2           2            45   15     2           1.765170E-04      45   47    2             1.192658E-02          1.871305E-01    2
          0                 3           2            20   17     1           9.507128E-05      48   41    1             6.201869E-03          1.209310E-01    3
          0                 4           2            19   19     2           8.434951E-05      50   23    1             4.352606E-03          9.720570E-02    4
          0                 5           2            41   23     2           6.077148E-05      48   37    1             3.651063E-03          8.273043E-02    5
          0                 6           2            26   23     1           6.778452E-05      50   27    1             2.879582E-03          7.265777E-02    6
          0                 7           2            32   28     2           5.238740E-05      47   30    1             2.878553E-03          6.464700E-02    7
          0                 8           2            31   30     1           6.578304E-05      31   29    2             2.450084E-03          5.807831E-02    8
          0                 9           2            33   31     2           4.570894E-05      47   30    1             2.432503E-03          5.218855E-02    9
          0                10           2            31   31     2           5.981889E-05      31   29    2             2.182208E-03          4.708731E-02    10
                                                   Max.-Head-Change                         Max.-Flux-Residual
  Residual-Control     NWT-Iter.   Inner-Iter.     Column Row Layer    Maximum-Head-Change  Column Row Layer    Maximum-Flux-Residual          L2-NORM   Outer-Iter.
          0                11           2            33   31     2           3.750400E-05      47   30    1             2.065910E-03          4.236406E-02    11
          0                12           2            31   31     2           5.198196E-05      31   29    2             1.842554E-03          3.822209E-02    12
          0                13           2            33   31     2           3.007626E-05      47   30    1             1.739449E-03          3.436429E-02    13
          0                14           2            31   31     2           4.407557E-05      31   29    2             1.520400E-03          3.097335E-02    14
          0                15           2            33   31     2           2.393082E-05      47   30    1             1.444830E-03          2.782245E-02    15
          0                16           2            31   31     2           3.686851E-05      31   29    2             1.240830E-03          2.504390E-02    16
          0                17           2            34   30     2           1.899507E-05      47   30    1             1.183679E-03          2.247500E-02    17
          0                18           2            31   31     2           3.054563E-05      32   32    2             1.008574E-03          2.020360E-02    18
          0                19           2            34   30     2           1.511236E-05      47   30    1             9.568829E-04          1.811523E-02    19
          0                20           2            31   31     2           2.511562E-05      32   32    2             8.182901E-04          1.626467E-02    20
                                                   Max.-Head-Change                         Max.-Flux-Residual
  Residual-Control     NWT-Iter.   Inner-Iter.     Column Row Layer    Maximum-Head-Change  Column Row Layer    Maximum-Flux-Residual          L2-NORM   Outer-Iter.
          0                21           2            34   30     2           1.202985E-05      47   30    1             7.639695E-04          1.457124E-02    21
          0                22           2            31   31     2           2.048819E-05      32   32    2             6.623196E-04          1.306964E-02    22
          0                23           2            35   31     2           9.605548E-06      41   32    1             6.388142E-04          1.170301E-02    23

 OUTPUT CONTROL FOR STRESS PERIOD      1   TIME STEP     6
    PRINT BUDGET
    SAVE HEAD FOR ALL LAYERS
 SOLVING FOR ZETA FOR LAYER     1 ZONE     2

     921 UPPER PART EQS.       924 LOWER PART EQS.    BAND WIDTH + 1 =     44
 STRESS PERIOD=   1 TIMESTEP=    6 LAYER=   1 ZONE=   2 ACTIVE CELLS= 1845 NUMBER OF EQUATIONS=    1845
 UBUDSV SAVING "      ZETASRF  1" ON UNIT 55 AT TIME STEP 6, STRESS PERIOD 1


                      VOLUMETRIC SWI ZONE BUDGET FOR ENTIRE MODEL
                     AT END OF TIME STEP    6 IN STRESS PERIOD   1
                                      ZONE     1
  -----------------------------------------------------------------------------------

        CUMULATIVE VOLUMES      L**3       RATES FOR THIS TIME STEP      L**3/T
        ------------------                 ------------------------

              IN:                                      IN:
              ---                                      ---
             BOUNDARIES =      736278.0000            BOUNDARIES =        1681.0000
          CONSTANT HEAD =           0.0000         CONSTANT HEAD =           0.0000
            ZONE CHANGE =        3314.3355           ZONE CHANGE =          14.2474
       ZONE CHG TIP/TOE =        3075.0000      ZONE CHG TIP/TOE =           0.0000
            ZONE MIXING =           0.0000           ZONE MIXING =           0.0000

               TOTAL IN =      742667.3355              TOTAL IN =        1695.2474

             OUT:                                     OUT:
             ----                                     ----
             BOUNDARIES =      116988.6448            BOUNDARIES =         534.5106
          CONSTANT HEAD =           0.0000         CONSTANT HEAD =           0.0000
            ZONE CHANGE =      677316.3276           ZONE CHANGE =        1401.8799
       ZONE CHG TIP/TOE =        3075.0000      ZONE CHG TIP/TOE =           0.0000
            ZONE MIXING =           0.0000           ZONE MIXING =           0.0000

              TOTAL OUT =      797379.9724             TOTAL OUT =        1936.3905

               IN - OUT =      -54712.6369              IN - OUT =        -241.1431

    PERCENT DISCREPANCY =          -7.11     PERCENT DISCREPANCY =         -13.28



                      VOLUMETRIC SWI ZONE BUDGET FOR ENTIRE MODEL
                     AT END OF TIME STEP    6 IN STRESS PERIOD   1
                                      ZONE     2
  -----------------------------------------------------------------------------------

        CUMULATIVE VOLUMES      L**3       RATES FOR THIS TIME STEP      L**3/T
        ------------------                 ------------------------

              IN:                                      IN:
              ---                                      ---
             BOUNDARIES =           0.0000            BOUNDARIES =           0.0000
          CONSTANT HEAD =           0.0000         CONSTANT HEAD =           0.0000
            ZONE CHANGE =      677316.3276           ZONE CHANGE =        1401.8799
       ZONE CHG TIP/TOE =       57858.5001      ZONE CHG TIP/TOE =         241.3240
            ZONE MIXING =           0.0000           ZONE MIXING =           0.0000

               TOTAL IN =      735174.8276              TOTAL IN =        1643.2040

             OUT:                                     OUT:
             ----                                     ----
             BOUNDARIES =      619128.6366            BOUNDARIES =        1146.0817
          CONSTANT HEAD =           0.0000         CONSTANT HEAD =           0.0000
            ZONE CHANGE =       58097.8356           ZONE CHANGE =         255.5715
       ZONE CHG TIP/TOE =        3075.0000      ZONE CHG TIP/TOE =           0.0000
            ZONE MIXING =           0.0000           ZONE MIXING =           0.0000

              TOTAL OUT =      680301.4722             TOTAL OUT =        1401.6532

               IN - OUT =       54873.3555              IN - OUT =         241.5508

    PERCENT DISCREPANCY =           7.75     PERCENT DISCREPANCY =          15.87


    ------------------------------------------------
       NWT REQUIRED           23 NEWTON ITERATIONS 
       AND A TOTAL OF         23 OUTER  ITERATIONS 
       AND A TOTAL OF         24 INNER  ITERATIONS.
    ------------------------------------------------

 HEAD WILL BE SAVED ON UNIT   51 AT END OF TIME STEP     6 IN STRESS PERIOD      1



  -------------------------------------------------------------------------------------
  VOLUMETRIC BUDGET FOR ENTIRE MODEL AT END OF TIME STEP    6 IN STRESS PERIOD      1
  -------------------------------------------------------------------------------------

     CUMULATIVE VOLUMES      L**3       RATES FOR THIS TIME STEP      L**3/T
     ------------------                 ------------------------

           IN:                                      IN:
           ---                                      ---
             STORAGE =           0.0000               STORAGE =           0.0000
       CONSTANT HEAD =           0.0000         CONSTANT HEAD =           0.0000
               WELLS =      736278.0000                 WELLS =        1681.0000
     HEAD DEP BOUNDS =           0.0000       HEAD DEP BOUNDS =           0.0000
          SWIADDTOCH =           0.0000            SWIADDTOCH =           0.0000

            TOTAL IN =      736278.0000              TOTAL IN =        1681.0000

          OUT:                                     OUT:
          ----                                     ----
             STORAGE =           0.0000               STORAGE =           0.0000
       CONSTANT HEAD =           0.0000         CONSTANT HEAD =           0.0000
               WELLS =           0.0000                 WELLS =           0.0000
     HEAD DEP BOUNDS =      736117.2814       HEAD DEP BOUNDS =        1680.5923
          SWIADDTOCH =           0.0000            SWIADDTOCH =           0.0000

           TOTAL OUT =      736117.2814             TOTAL OUT =        1680.5923

            IN - OUT =         160.7186              IN - OUT =           0.4077

 PERCENT DISCREPANCY =           0.02     PERCENT DISCREPANCY =           0.02


          TIME SUMMARY AT END OF TIME STEP     6 IN STRESS PERIOD      1
                    SECONDS     MINUTES      HOURS       DAYS        YEARS
                    -----------------------------------------------------------
   TIME STEP LENGTH 6.30720E+06 1.05120E+05  1752.0      73.000     0.19986    
 STRESS PERIOD TIME 3.78432E+07 6.30720E+05  10512.      438.00      1.1992    
         TOTAL TIME 3.78432E+07 6.30720E+05  10512.      438.00      1.1992    
 
 
 SOLVING FOR HEAD 
                                                   Max.-Head-Change                         Max.-Flux-Residual
  Residual-Control     NWT-Iter.   Inner-Iter.     Column Row Layer    Maximum-Head-Change  Column Row Layer    Maximum-Flux-Residual          L2-NORM   Outer-Iter.
          0                 1           3            49   49     1           3.159665E-03      10   49    1            -6.465016E-01          9.466807E+00    1
          0                 2           2            44   16     2           6.235778E-04      18   14    2             2.728869E-02          4.476244E-01    2
          0                 3           2            21   20     1           2.235963E-04      46   43    1             1.586160E-02          3.169446E-01    3
          0                 4           2            43   21     2           2.684745E-04      44   20    2             1.109920E-02          2.604733E-01    4
          0                 5           2            31   24     1           1.559341E-04      46   35    1             1.010916E-02          2.261920E-01    5
          0                 6           2            34   28     2           2.230395E-04      44   28    2             7.874457E-03          1.997379E-01    6
          0                 7           2            31   30     1           1.467675E-04      46   31    1             8.076672E-03          1.788687E-01    7
          0                 8           2            31   31     2           1.994290E-04      30   30    2             7.140591E-03          1.602514E-01    8
          0                 9           2            31   31     2           1.280939E-04      46   31    1             6.732264E-03          1.443823E-01    9
          0                10           2            31   31     2           1.667721E-04      30   30    2             6.129455E-03          1.298395E-01    10
                                                   Max.-Head-Change                         Max.-Flux-Residual
  Residual-Control     NWT-Iter.   Inner-Iter.     Column Row Layer    Maximum-Head-Change  Column Row Layer    Maximum-Flux-Residual          L2-NORM   Outer-Iter.
          0                11           2            31   31     2           1.074936E-04      46   31    1             5.634739E-03          1.171400E-01    11
          0                12           2            30   30     2           1.365287E-04      30   30    2             5.105576E-03          1.055041E-01    12
          0                13           2            32   32     2           8.866299E-05      46   31    1             4.703296E-03          9.522639E-02    13
          0                14           2            30   30     2           1.112447E-04      30   30    2             4.205890E-03          8.583801E-02    14
          0                15           2            32   32     2           7.257917E-05      46   31    1             3.906932E-03          7.749003E-02    15
          0                16           2            30   30     2           9.063792E-05      37   31    2             3.452767E-03          6.988757E-02    16
          0                17           2            33   31     2           5.920402E-05      46   31    1             3.228040E-03          6.309596E-02    17
          0                18           2            30   30     2           7.397094E-05      37   31    2             2.843542E-03          5.692549E-02    18
          0                19           2            33   31     2           4.825739E-05      46   31    1             2.652975E-03          5.139380E-02    19
          0                20           2            30   30     2           6.046139E-05      37   31    2             2.335274E-03          4.637784E-02    20
                                                   Max.-Head-Change                         Max.-Flux-Residual
  Residual-Control     NWT-Iter.   Inner-Iter.     Column Row Layer    Maximum-Head-Change  Column Row Layer    Maximum-Flux-Residual          L2-NORM   Outer-Iter.
          0                21           2            33   31     2           3.927900E-05      46   35    1             2.172306E-03          4.186931E-02    21
          0                22           2            30   30     2           4.947486E-05      37   31    2             1.912865E-03          3.778765E-02    22
          0                23           2            33   31     2           3.193684E-05      46   35    1             1.769480E-03          3.411166E-02    23
          0                24           2            30   30     2           4.051290E-05      37   31    2             1.562921E-03          3.078802E-02    24
          0                25           2            33   31     2           2.594343E-05      34   30    2             1.450512E-03          2.779035E-02    25
          0                26           2            31   31     2           3.319470E-05      38   30    2             1.278368E-03          2.508276E-02    26
          0                27           2            33   31     2           2.105764E-05      34   30    2             1.193368E-03          2.263819E-02    27
          0                28           2            31   31     2           2.720894E-05      38   30    2             1.048393E-03          2.043190E-02    28
          0                29           2            33   31     2           1.707944E-05      34   30    2             9.800061E-04          1.843855E-02    29
          0                30           2            31   31     2           2.229895E-05      38   30    2             8.577601E-04          1.664056E-02    30
                                                   Max.-Head-Change                         Max.-Flux-Residual
  Residual-Control     NWT-Iter.   Inner-Iter.     Column Row Layer    Maximum-Head-Change  Column Row Layer    Maximum-Flux-Residual          L2-NORM   Outer-Iter.
          0                31           2            34   30     2           1.386926E-05      40   33    1             8.091508E-04          1.501545E-02    31
          0                32           2            31   31     2           1.826720E-05      38   30    2             7.001791E-04          1.355021E-02    32
          0                33           2            34   30     2           1.127225E-05      40   33    1             6.731281E-04          1.222565E-02    33
          0                34           2            31   31     2           1.495469E-05      31   29    2             5.712116E-04          1.103171E-02    34
          0                35           2            34   30     2           9.156857E-06      40   33    1             5.582077E-04          9.952447E-03    35

 OUTPUT CONTROL FOR STRESS PERIOD      1   TIME STEP     7
    PRINT BUDGET
    SAVE HEAD FOR ALL LAYERS
 SOLVING FOR ZETA FOR LAYER     1 ZONE     2

     841 UPPER PART EQS.       840 LOWER PART EQS.    BAND WIDTH + 1 =     42
 STRESS PERIOD=   1 TIMESTEP=    7 LAYER=   1 ZONE=   2 ACTIVE CELLS= 1681 NUMBER OF EQUATIONS=    1681
 UBUDSV SAVING "      ZETASRF  1" ON UNIT 55 AT TIME STEP 7, STRESS PERIOD 1


                      VOLUMETRIC SWI ZONE BUDGET FOR ENTIRE MODEL
                     AT END OF TIME STEP    7 IN STRESS PERIOD   1
                                      ZONE     1
  -----------------------------------------------------------------------------------

        CUMULATIVE VOLUMES      L**3       RATES FOR THIS TIME STEP      L**3/T
        ------------------                 ------------------------

              IN:                                      IN:
              ---                                      ---
             BOUNDARIES =      858991.0000            BOUNDARIES =        1681.0000
          CONSTANT HEAD =           0.0000         CONSTANT HEAD =           0.0000
            ZONE CHANGE =        3314.3355           ZONE CHANGE =           0.0000
       ZONE CHG TIP/TOE =        4100.0000      ZONE CHG TIP/TOE =          14.0411
            ZONE MIXING =           0.0000           ZONE MIXING =           0.0000

               TOTAL IN =      866405.3355              TOTAL IN =        1695.0411

             OUT:                                     OUT:
             ----                                     ----
             BOUNDARIES =      116988.6448            BOUNDARIES =           0.0000
          CONSTANT HEAD =           0.0000         CONSTANT HEAD =           0.0000
            ZONE CHANGE =      800018.3529           ZONE CHANGE =        1680.8497
       ZONE CHG TIP/TOE =        4100.0000      ZONE CHG TIP/TOE =          14.0411
            ZONE MIXING =           0.0000           ZONE MIXING =           0.0000

              TOTAL OUT =      921106.9977             TOTAL OUT =        1694.8908

               IN - OUT =      -54701.6622              IN - OUT =           0.1503

    PERCENT DISCREPANCY =          -6.12     PERCENT DISCREPANCY =           0.01



                      VOLUMETRIC SWI ZONE BUDGET FOR ENTIRE MODEL
                     AT END OF TIME STEP    7 IN STRESS PERIOD   1
                                      ZONE     2
  -----------------------------------------------------------------------------------

        CUMULATIVE VOLUMES      L**3       RATES FOR THIS TIME STEP      L**3/T
        ------------------                 ------------------------

              IN:                                      IN:
              ---                                      ---
             BOUNDARIES =           0.0000            BOUNDARIES =           0.0000
          CONSTANT HEAD =           0.0000         CONSTANT HEAD =           0.0000
            ZONE CHANGE =      800018.3529           ZONE CHANGE =        1680.8497
       ZONE CHG TIP/TOE =       58883.5001      ZONE CHG TIP/TOE =          14.0411
            ZONE MIXING =           0.0000           ZONE MIXING =           0.0000

               TOTAL IN =      858901.8530              TOTAL IN =        1694.8908

             OUT:                                     OUT:
             ----                                     ----
             BOUNDARIES =      741816.2338            BOUNDARIES =        1680.6520
          CONSTANT HEAD =           0.0000         CONSTANT HEAD =           0.0000
            ZONE CHANGE =       58097.8356           ZONE CHANGE =           0.0000
       ZONE CHG TIP/TOE =        4100.0000      ZONE CHG TIP/TOE =          14.0411
            ZONE MIXING =           0.0000           ZONE MIXING =           0.0000

              TOTAL OUT =      804014.0694             TOTAL OUT =        1694.6931

               IN - OUT =       54887.7835              IN - OUT =           0.1976

    PERCENT DISCREPANCY =           6.60     PERCENT DISCREPANCY =           0.01


    ------------------------------------------------
       NWT REQUIRED           35 NEWTON ITERATIONS 
       AND A TOTAL OF         35 OUTER  ITERATIONS 
       AND A TOTAL OF         36 INNER  ITERATIONS.
    ------------------------------------------------

 HEAD WILL BE SAVED ON UNIT   51 AT END OF TIME STEP     7 IN STRESS PERIOD      1



  -------------------------------------------------------------------------------------
  VOLUMETRIC BUDGET FOR ENTIRE MODEL AT END OF TIME STEP    7 IN STRESS PERIOD      1
  -------------------------------------------------------------------------------------

     CUMULATIVE VOLUMES      L**3       RATES FOR THIS TIME STEP      L**3/T
     ------------------                 ------------------------

           IN:                                      IN:
           ---                                      ---
             STORAGE =           0.0000               STORAGE =           0.0000
       CONSTANT HEAD =           0.0000         CONSTANT HEAD =           0.0000
               WELLS =      858991.0000                 WELLS =        1681.0000
     HEAD DEP BOUNDS =           0.0000       HEAD DEP BOUNDS =           0.0000
          SWIADDTOCH =           0.0000            SWIADDTOCH =           0.0000

            TOTAL IN =      858991.0000              TOTAL IN =        1681.0000

          OUT:                                     OUT:
          ----                                     ----
             STORAGE =           0.0000               STORAGE =           0.0000
       CONSTANT HEAD =           0.0000         CONSTANT HEAD =           0.0000
               WELLS =           0.0000                 WELLS =           0.0000
     HEAD DEP BOUNDS =      858804.8787       HEAD DEP BOUNDS =        1680.6520
          SWIADDTOCH =           0.0000            SWIADDTOCH =           0.0000

           TOTAL OUT =      858804.8787             TOTAL OUT =        1680.6520

            IN - OUT =         186.1213              IN - OUT =           0.3480

 PERCENT DISCREPANCY =           0.02     PERCENT DISCREPANCY =           0.02


          TIME SUMMARY AT END OF TIME STEP     7 IN STRESS PERIOD      1
                    SECONDS     MINUTES      HOURS       DAYS        YEARS
                    -----------------------------------------------------------
   TIME STEP LENGTH 6.30720E+06 1.05120E+05  1752.0      73.000     0.19986    
 STRESS PERIOD TIME 4.41504E+07 7.35840E+05  12264.      511.00      1.3990    
         TOTAL TIME 4.41504E+07 7.35840E+05  12264.      511.00      1.3990    
 
 
 SOLVING FOR HEAD 
                                                   Max.-Head-Change                         Max.-Flux-Residual
  Residual-Control     NWT-Iter.   Inner-Iter.     Column Row Layer    Maximum-Head-Change  Column Row Layer    Maximum-Flux-Residual          L2-NORM   Outer-Iter.
          0                 1           3            31   51     1           3.136815E-03      11   11    1             9.287222E-01          1.200206E+01    1
          0                 2           2            45   15     2           1.206294E-04      16   12    2             9.632749E-03          1.484057E-01    2
          0                 3           2            20   17     1           7.185675E-05      48   41    1             4.720682E-03          8.991172E-02    3
          0                 4           2            19   19     2           6.148995E-05      50   23    1             3.199036E-03          7.121005E-02    4
          0                 5           2            41   23     2           4.529916E-05      48   37    1             2.739393E-03          6.046007E-02    5
          0                 6           2            26   23     1           4.931398E-05      50   27    1             2.113943E-03          5.311060E-02    6
          0                 7           2            32   28     2           3.845885E-05      47   30    1             2.090671E-03          4.723531E-02    7
          0                 8           2            31   30     1           4.796669E-05      31   29    2             1.790073E-03          4.245595E-02    8
          0                 9           2            31   29     2           3.331369E-05      47   30    1             1.775181E-03          3.813478E-02    9
          0                10           2            31   30     1           4.406634E-05      31   29    2             1.597034E-03          3.441841E-02    10
                                                   Max.-Head-Change                         Max.-Flux-Residual
  Residual-Control     NWT-Iter.   Inner-Iter.     Column Row Layer    Maximum-Head-Change  Column Row Layer    Maximum-Flux-Residual          L2-NORM   Outer-Iter.
          0                11           2            33   31     2           2.712137E-05      47   30    1             1.512293E-03          3.094765E-02    11
          0                12           2            31   31     2           3.859246E-05      31   29    2             1.348212E-03          2.792188E-02    12
          0                13           2            33   31     2           2.162008E-05      47   30    1             1.274153E-03          2.508289E-02    13
          0                14           2            31   31     2           3.294704E-05      31   29    2             1.110945E-03          2.259723E-02    14
          0                15           2            33   31     2           1.710052E-05      47   30    1             1.057114E-03          2.027338E-02    15
          0                16           2            31   31     2           2.767939E-05      31   29    2             9.044044E-04          1.823179E-02    16
          0                17           2            34   30     2           1.351554E-05      47   30    1             8.631865E-04          1.633517E-02    17
          0                18           2            31   31     2           2.297495E-05      32   32    2             7.336293E-04          1.466408E-02    18
          0                19           2            34   30     2           1.069785E-05      47   30    1             6.940049E-04          1.312177E-02    19
          0                20           2            31   31     2           1.885929E-05      32   32    2             5.929639E-04          1.176107E-02    20
          0                21           2            35   31     2           8.481239E-06      41   32    1             5.638344E-04          1.051441E-02    21

 OUTPUT CONTROL FOR STRESS PERIOD      1   TIME STEP     8
    PRINT BUDGET
    SAVE HEAD FOR ALL LAYERS
 SOLVING FOR ZETA FOR LAYER     1 ZONE     2

     921 UPPER PART EQS.       924 LOWER PART EQS.    BAND WIDTH + 1 =     44
 STRESS PERIOD=   1 TIMESTEP=    8 LAYER=   1 ZONE=   2 ACTIVE CELLS= 1845 NUMBER OF EQUATIONS=    1845
 UBUDSV SAVING "      ZETASRF  1" ON UNIT 55 AT TIME STEP 8, STRESS PERIOD 1


                      VOLUMETRIC SWI ZONE BUDGET FOR ENTIRE MODEL
                     AT END OF TIME STEP    8 IN STRESS PERIOD   1
                                      ZONE     1
  -----------------------------------------------------------------------------------

        CUMULATIVE VOLUMES      L**3       RATES FOR THIS TIME STEP      L**3/T
        ------------------                 ------------------------

              IN:                                      IN:
              ---                                      ---
             BOUNDARIES =      981704.0000            BOUNDARIES =        1681.0000
          CONSTANT HEAD =           0.0000         CONSTANT HEAD =           0.0000
            ZONE CHANGE =        4339.3355           ZONE CHANGE =          14.0411
       ZONE CHG TIP/TOE =        4100.0000      ZONE CHG TIP/TOE =           0.0000
            ZONE MIXING =           0.0000           ZONE MIXING =           0.0000

               TOTAL IN =      990143.3355              TOTAL IN =        1695.0411

             OUT:                                     OUT:
             ----                                     ----
             BOUNDARIES =      156037.8151            BOUNDARIES =         534.9201
          CONSTANT HEAD =           0.0000         CONSTANT HEAD =           0.0000
            ZONE CHANGE =      901563.7047           ZONE CHANGE =        1391.0322
       ZONE CHG TIP/TOE =        4100.0000      ZONE CHG TIP/TOE =           0.0000
            ZONE MIXING =           0.0000           ZONE MIXING =           0.0000

              TOTAL OUT =     1061701.5198             TOTAL OUT =        1925.9524

               IN - OUT =      -71558.1842              IN - OUT =        -230.9113

    PERCENT DISCREPANCY =          -6.98     PERCENT DISCREPANCY =         -12.75



                      VOLUMETRIC SWI ZONE BUDGET FOR ENTIRE MODEL
                     AT END OF TIME STEP    8 IN STRESS PERIOD   1
                                      ZONE     2
  -----------------------------------------------------------------------------------

        CUMULATIVE VOLUMES      L**3       RATES FOR THIS TIME STEP      L**3/T
        ------------------                 ------------------------

              IN:                                      IN:
              ---                                      ---
             BOUNDARIES =           0.0000            BOUNDARIES =           0.0000
          CONSTANT HEAD =           0.0000         CONSTANT HEAD =           0.0000
            ZONE CHANGE =      901563.7047           ZONE CHANGE =        1391.0322
       ZONE CHG TIP/TOE =       75751.8965      ZONE CHG TIP/TOE =         231.0739
            ZONE MIXING =           0.0000           ZONE MIXING =           0.0000

               TOTAL IN =      977315.6011              TOTAL IN =        1622.1061

             OUT:                                     OUT:
             ----                                     ----
             BOUNDARIES =      825453.3392            BOUNDARIES =        1145.7138
          CONSTANT HEAD =           0.0000         CONSTANT HEAD =           0.0000
            ZONE CHANGE =       75991.2320           ZONE CHANGE =         245.1150
       ZONE CHG TIP/TOE =        4100.0000      ZONE CHG TIP/TOE =           0.0000
            ZONE MIXING =           0.0000           ZONE MIXING =           0.0000

              TOTAL OUT =      905544.5712             TOTAL OUT =        1390.8288

               IN - OUT =       71771.0300              IN - OUT =         231.2773

    PERCENT DISCREPANCY =           7.62     PERCENT DISCREPANCY =          15.35


    ------------------------------------------------
       NWT REQUIRED           21 NEWTON ITERATIONS 
       AND A TOTAL OF         21 OUTER  ITERATIONS 
       AND A TOTAL OF         22 INNER  ITERATIONS.
    ------------------------------------------------

 HEAD WILL BE SAVED ON UNIT   51 AT END OF TIME STEP     8 IN STRESS PERIOD      1



  -------------------------------------------------------------------------------------
  VOLUMETRIC BUDGET FOR ENTIRE MODEL AT END OF TIME STEP    8 IN STRESS PERIOD      1
  -------------------------------------------------------------------------------------

     CUMULATIVE VOLUMES      L**3       RATES FOR THIS TIME STEP      L**3/T
     ------------------                 ------------------------

           IN:                                      IN:
           ---                                      ---
             STORAGE =           0.0000               STORAGE =           0.0000
       CONSTANT HEAD =           0.0000         CONSTANT HEAD =           0.0000
               WELLS =      981704.0000                 WELLS =        1681.0000
     HEAD DEP BOUNDS =           0.0000       HEAD DEP BOUNDS =           0.0000
          SWIADDTOCH =           0.0000            SWIADDTOCH =           0.0000

            TOTAL IN =      981704.0000              TOTAL IN =        1681.0000

          OUT:                                     OUT:
          ----                                     ----
             STORAGE =           0.0000               STORAGE =           0.0000
       CONSTANT HEAD =           0.0000         CONSTANT HEAD =           0.0000
               WELLS =           0.0000                 WELLS =           0.0000
     HEAD DEP BOUNDS =      981491.1543       HEAD DEP BOUNDS =        1680.6339
          SWIADDTOCH =           0.0000            SWIADDTOCH =           0.0000

           TOTAL OUT =      981491.1543             TOTAL OUT =        1680.6339

            IN - OUT =         212.8457              IN - OUT =           0.3661

 PERCENT DISCREPANCY =           0.02     PERCENT DISCREPANCY =           0.02


          TIME SUMMARY AT END OF TIME STEP     8 IN STRESS PERIOD      1
                    SECONDS     MINUTES      HOURS       DAYS        YEARS
                    -----------------------------------------------------------
   TIME STEP LENGTH 6.30720E+06 1.05120E+05  1752.0      73.000     0.19986    
 STRESS PERIOD TIME 5.04576E+07 8.40960E+05  14016.      584.00      1.5989    
         TOTAL TIME 5.04576E+07 8.40960E+05  14016.      584.00      1.5989    
 
 
 SOLVING FOR HEAD 
                                                   Max.-Head-Change                         Max.-Flux-Residual
  Residual-Control     NWT-Iter.   Inner-Iter.     Column Row Layer    Maximum-Head-Change  Column Row Layer    Maximum-Flux-Residual          L2-NORM   Outer-Iter.
          0                 1           3            49   49     1           3.298704E-03      49   52    1            -7.256293E-01          1.037857E+01    1
          0                 2           2            44   16     2           6.779811E-04      18   14    2             2.955306E-02          4.870233E-01    2
          0                 3           2            21   20     1           2.404546E-04      46   43    1             1.731933E-02          3.442777E-01    3
          0                 4           2            43   21     2           2.962381E-04      44   20    2             1.202929E-02          2.817483E-01    4
          0                 5           2            31   24     1           1.654911E-04      46   35    1             1.090881E-02          2.440183E-01    5
          0                 6           2            34   28     2           2.456796E-04      36   28    2             8.446658E-03          2.151228E-01    6
          0                 7           2            31   30     1           1.552066E-04      46   31    1             8.706680E-03          1.924325E-01    7
          0                 8           2            31   31     2           2.204444E-04      30   30    2             7.687921E-03          1.721931E-01    8
          0                 9           2            31   31     2           1.349735E-04      46   31    1             7.256039E-03          1.549831E-01    9
          0                10           2            31   31     2           1.840747E-04      30   30    2             6.587356E-03          1.392244E-01    10
                                                   Max.-Head-Change                         Max.-Flux-Residual
  Residual-Control     NWT-Iter.   Inner-Iter.     Column Row Layer    Maximum-Head-Change  Column Row Layer    Maximum-Flux-Residual          L2-NORM   Outer-Iter.
          0                11           2            31   31     2           1.128121E-04      46   31    1             6.068924E-03          1.255098E-01    11
          0                12           2            31   31     2           1.505214E-04      30   30    2             5.474825E-03          1.129127E-01    12
          0                13           2            32   32     2           9.272405E-05      46   31    1             5.057597E-03          1.018377E-01    13
          0                14           2            30   30     2           1.225849E-04      30   30    2             4.500077E-03          9.169231E-02    14
          0                15           2            32   32     2           7.562693E-05      46   31    1             4.192118E-03          8.270796E-02    15
          0                16           2            30   30     2           9.980838E-05      30   30    2             3.683258E-03          7.450749E-02    16
          0                17           2            33   31     2           6.154397E-05      46   31    1             3.453766E-03          6.720807E-02    17
          0                18           2            30   30     2           8.135420E-05      37   31    2             3.011011E-03          6.056501E-02    18
          0                19           2            33   31     2           5.001620E-05      46   31    1             2.828262E-03          5.462931E-02    19
          0                20           2            30   30     2           6.639787E-05      37   31    2             2.463564E-03          4.923949E-02    20
                                                   Max.-Head-Change                         Max.-Flux-Residual
  Residual-Control     NWT-Iter.   Inner-Iter.     Column Row Layer    Maximum-Head-Change  Column Row Layer    Maximum-Flux-Residual          L2-NORM   Outer-Iter.
          0                21           2            33   31     2           4.059446E-05      46   35    1             2.304419E-03          4.440976E-02    21
          0                22           2            31   31     2           5.424827E-05      37   31    2             2.010323E-03          4.003229E-02    22
          0                23           2            33   31     2           3.291429E-05      46   35    1             1.868007E-03          3.610136E-02    23
          0                24           2            31   31     2           4.435294E-05      38   30    2             1.645211E-03          3.254383E-02    24
          0                25           2            33   31     2           2.666399E-05      34   30    2             1.529935E-03          2.934428E-02    25
          0                26           2            31   31     2           3.627012E-05      38   30    2             1.347509E-03          2.645204E-02    26
          0                27           2            33   31     2           2.158390E-05      34   30    2             1.254474E-03          2.384807E-02    27
          0                28           2            31   31     2           2.965603E-05      38   30    2             1.100931E-03          2.149633E-02    28
          0                29           2            34   30     2           1.748865E-05      40   33    1             1.034699E-03          1.937756E-02    29
          0                30           2            31   31     2           2.423735E-05      38   30    2             8.972891E-04          1.746529E-02    30
                                                   Max.-Head-Change                         Max.-Flux-Residual
  Residual-Control     NWT-Iter.   Inner-Iter.     Column Row Layer    Maximum-Head-Change  Column Row Layer    Maximum-Flux-Residual          L2-NORM   Outer-Iter.
          0                31           2            34   30     2           1.418674E-05      40   33    1             8.602972E-04          1.574185E-02    31
          0                32           2            31   31     2           1.979515E-05      31   29    2             7.306365E-04          1.418711E-02    32
          0                33           2            34   30     2           1.150215E-05      40   33    1             7.128860E-04          1.278577E-02    33
          0                34           2            31   31     2           1.615282E-05      31   29    2             5.964812E-04          1.152196E-02    34
          0                35           2            34   30     2           9.321173E-06      40   33    1             5.886227E-04          1.038299E-02    35

 OUTPUT CONTROL FOR STRESS PERIOD      1   TIME STEP     9
    PRINT BUDGET
    SAVE HEAD FOR ALL LAYERS
 SOLVING FOR ZETA FOR LAYER     1 ZONE     2

     841 UPPER PART EQS.       840 LOWER PART EQS.    BAND WIDTH + 1 =     42
 STRESS PERIOD=   1 TIMESTEP=    9 LAYER=   1 ZONE=   2 ACTIVE CELLS= 1681 NUMBER OF EQUATIONS=    1681
 UBUDSV SAVING "      ZETASRF  1" ON UNIT 55 AT TIME STEP 9, STRESS PERIOD 1


                      VOLUMETRIC SWI ZONE BUDGET FOR ENTIRE MODEL
                     AT END OF TIME STEP    9 IN STRESS PERIOD   1
                                      ZONE     1
  -----------------------------------------------------------------------------------

        CUMULATIVE VOLUMES      L**3       RATES FOR THIS TIME STEP      L**3/T
        ------------------                 ------------------------

              IN:                                      IN:
              ---                                      ---
             BOUNDARIES =     1104417.0000            BOUNDARIES =        1681.0000
          CONSTANT HEAD =           0.0000         CONSTANT HEAD =           0.0000
            ZONE CHANGE =        4339.3355           ZONE CHANGE =           0.0000
       ZONE CHG TIP/TOE =        5125.0000      ZONE CHG TIP/TOE =          14.0411
            ZONE MIXING =           0.0000           ZONE MIXING =           0.0000

               TOTAL IN =     1113881.3355              TOTAL IN =        1695.0411

             OUT:                                     OUT:
             ----                                     ----
             BOUNDARIES =      156037.8151            BOUNDARIES =           0.0000
          CONSTANT HEAD =           0.0000         CONSTANT HEAD =           0.0000
            ZONE CHANGE =     1024265.2575           ZONE CHANGE =        1680.8432
       ZONE CHG TIP/TOE =        5125.0000      ZONE CHG TIP/TOE =          14.0411
            ZONE MIXING =           0.0000           ZONE MIXING =           0.0000

              TOTAL OUT =     1185428.0726             TOTAL OUT =        1694.8843

               IN - OUT =      -71546.7371              IN - OUT =           0.1568

    PERCENT DISCREPANCY =          -6.22     PERCENT DISCREPANCY =           0.01



                      VOLUMETRIC SWI ZONE BUDGET FOR ENTIRE MODEL
                     AT END OF TIME STEP    9 IN STRESS PERIOD   1
                                      ZONE     2
  -----------------------------------------------------------------------------------

        CUMULATIVE VOLUMES      L**3       RATES FOR THIS TIME STEP      L**3/T
        ------------------                 ------------------------

              IN:                                      IN:
              ---                                      ---
             BOUNDARIES =           0.0000            BOUNDARIES =           0.0000
          CONSTANT HEAD =           0.0000         CONSTANT HEAD =           0.0000
            ZONE CHANGE =     1024265.2575           ZONE CHANGE =        1680.8432
       ZONE CHG TIP/TOE =       76776.8965      ZONE CHG TIP/TOE =          14.0411
            ZONE MIXING =           0.0000           ZONE MIXING =           0.0000

               TOTAL IN =     1101042.1540              TOTAL IN =        1694.8843

             OUT:                                     OUT:
             ----                                     ----
             BOUNDARIES =      948139.8482            BOUNDARIES =        1680.6371
          CONSTANT HEAD =           0.0000         CONSTANT HEAD =           0.0000
            ZONE CHANGE =       75991.2320           ZONE CHANGE =           0.0000
       ZONE CHG TIP/TOE =        5125.0000      ZONE CHG TIP/TOE =          14.0411
            ZONE MIXING =           0.0000           ZONE MIXING =           0.0000

              TOTAL OUT =     1029256.0802             TOTAL OUT =        1694.6782

               IN - OUT =       71786.0738              IN - OUT =           0.2061

    PERCENT DISCREPANCY =           6.74     PERCENT DISCREPANCY =           0.01


    ------------------------------------------------
       NWT REQUIRED           35 NEWTON ITERATIONS 
       AND A TOTAL OF         35 OUTER  ITERATIONS 
       AND A TOTAL OF         36 INNER  ITERATIONS.
    ------------------------------------------------

 HEAD WILL BE SAVED ON UNIT   51 AT END OF TIME STEP     9 IN STRESS PERIOD      1



  -------------------------------------------------------------------------------------
  VOLUMETRIC BUDGET FOR ENTIRE MODEL AT END OF TIME STEP    9 IN STRESS PERIOD      1
  -------------------------------------------------------------------------------------

     CUMULATIVE VOLUMES      L**3       RATES FOR THIS TIME STEP      L**3/T
     ------------------                 ------------------------

           IN:                                      IN:
           ---                                      ---
             STORAGE =           0.0000               STORAGE =           0.0000
       CONSTANT HEAD =           0.0000         CONSTANT HEAD =           0.0000
               WELLS =     1104417.0000                 WELLS =        1681.0000
     HEAD DEP BOUNDS =           0.0000       HEAD DEP BOUNDS =           0.0000
          SWIADDTOCH =           0.0000            SWIADDTOCH =           0.0000

            TOTAL IN =     1104417.0000              TOTAL IN =        1681.0000

          OUT:                                     OUT:
          ----                                     ----
             STORAGE =           0.0000               STORAGE =           0.0000
       CONSTANT HEAD =           0.0000         CONSTANT HEAD =           0.0000
               WELLS =           0.0000                 WELLS =           0.0000
     HEAD DEP BOUNDS =     1104177.6633       HEAD DEP BOUNDS =        1680.6371
          SWIADDTOCH =           0.0000            SWIADDTOCH =           0.0000

           TOTAL OUT =     1104177.6633             TOTAL OUT =        1680.6371

            IN - OUT =         239.3367              IN - OUT =           0.3629

 PERCENT DISCREPANCY =           0.02     PERCENT DISCREPANCY =           0.02


          TIME SUMMARY AT END OF TIME STEP     9 IN STRESS PERIOD      1
                    SECONDS     MINUTES      HOURS       DAYS        YEARS
                    -----------------------------------------------------------
   TIME STEP LENGTH 6.30720E+06 1.05120E+05  1752.0      73.000     0.19986    
 STRESS PERIOD TIME 5.67648E+07 9.46080E+05  15768.      657.00      1.7988    
         TOTAL TIME 5.67648E+07 9.46080E+05  15768.      657.00      1.7988    
 
 
 SOLVING FOR HEAD 
                                                   Max.-Head-Change                         Max.-Flux-Residual
  Residual-Control     NWT-Iter.   Inner-Iter.     Column Row Layer    Maximum-Head-Change  Column Row Layer    Maximum-Flux-Residual          L2-NORM   Outer-Iter.
          0                 1           3            31   51     1           3.130370E-03      11   11    1             8.809852E-01          1.163499E+01    1
          0                 2           2            44   14     2           6.790147E-05      16   12    2             7.013160E-03          1.098515E-01    2
          0                 3           2            19   16     1           4.083185E-05      48   33    1             2.976083E-03          5.460542E-02    3
          0                 4           2            20   18     2           3.509610E-05      46   18    2             1.746196E-03          4.014448E-02    4
          0                 5           2            23   21     2           2.631525E-05      48   37    1             1.542302E-03          3.374291E-02    5
          0                 6           2            27   22     1           2.860517E-05      46   26    2             1.156221E-03          2.970909E-02    6
          0                 7           2            30   26     2           2.166257E-05      48   33    1             1.212263E-03          2.644367E-02    7
          0                 8           2            30   28     2           2.804341E-05      30   26    2             1.020655E-03          2.378273E-02    8
          0                 9           2            31   29     2           1.827598E-05      48   33    1             1.019546E-03          2.134466E-02    9
          0                10           2            31   29     2           2.605613E-05      31   29    2             9.027896E-04          1.924769E-02    10
                                                   Max.-Head-Change                         Max.-Flux-Residual
  Residual-Control     NWT-Iter.   Inner-Iter.     Column Row Layer    Maximum-Head-Change  Column Row Layer    Maximum-Flux-Residual          L2-NORM   Outer-Iter.
          0                11           2            30   30     2           1.460555E-05      48   33    1             8.669861E-04          1.727524E-02    11
          0                12           2            30   30     2           2.300323E-05      31   29    2             7.566398E-04          1.555425E-02    12
          0                13           2            30   30     2           1.147499E-05      48   33    1             7.318543E-04          1.393431E-02    13
          0                14           2            31   31     2           1.970493E-05      31   29    2             6.183704E-04          1.251327E-02    14
          0                15           2            30   31     1           8.976335E-06      48   33    1             6.095373E-04          1.118561E-02    15

 OUTPUT CONTROL FOR STRESS PERIOD      1   TIME STEP    10
    PRINT BUDGET
    SAVE HEAD FOR ALL LAYERS
 SOLVING FOR ZETA FOR LAYER     1 ZONE     2

     921 UPPER PART EQS.       924 LOWER PART EQS.    BAND WIDTH + 1 =     44
 STRESS PERIOD=   1 TIMESTEP=   10 LAYER=   1 ZONE=   2 ACTIVE CELLS= 1845 NUMBER OF EQUATIONS=    1845
 UBUDSV SAVING "      ZETASRF  1" ON UNIT 55 AT TIME STEP 10, STRESS PERIOD 1


                      VOLUMETRIC SWI ZONE BUDGET FOR ENTIRE MODEL
                     AT END OF TIME STEP   10 IN STRESS PERIOD   1
                                      ZONE     1
  -----------------------------------------------------------------------------------

        CUMULATIVE VOLUMES      L**3       RATES FOR THIS TIME STEP      L**3/T
        ------------------                 ------------------------

              IN:                                      IN:
              ---                                      ---
             BOUNDARIES =     1227130.0000            BOUNDARIES =        1681.0000
          CONSTANT HEAD =           0.0000         CONSTANT HEAD =           0.0000
            ZONE CHANGE =        5364.3355           ZONE CHANGE =          14.0411
       ZONE CHG TIP/TOE =        5125.0000      ZONE CHG TIP/TOE =           0.0000
            ZONE MIXING =           0.0000           ZONE MIXING =           0.0000

               TOTAL IN =     1237619.3355              TOTAL IN =        1695.0411

             OUT:                                     OUT:
             ----                                     ----
             BOUNDARIES =      195119.8507            BOUNDARIES =         535.3704
          CONSTANT HEAD =           0.0000         CONSTANT HEAD =           0.0000
            ZONE CHANGE =     1124945.1155           ZONE CHANGE =        1379.1761
       ZONE CHG TIP/TOE =        5125.0000      ZONE CHG TIP/TOE =           0.0000
            ZONE MIXING =           0.0000           ZONE MIXING =           0.0000

              TOTAL OUT =     1325189.9662             TOTAL OUT =        1914.5465

               IN - OUT =      -87570.6306              IN - OUT =        -219.5054

    PERCENT DISCREPANCY =          -6.83     PERCENT DISCREPANCY =         -12.16



                      VOLUMETRIC SWI ZONE BUDGET FOR ENTIRE MODEL
                     AT END OF TIME STEP   10 IN STRESS PERIOD   1
                                      ZONE     2
  -----------------------------------------------------------------------------------

        CUMULATIVE VOLUMES      L**3       RATES FOR THIS TIME STEP      L**3/T
        ------------------                 ------------------------

              IN:                                      IN:
              ---                                      ---
             BOUNDARIES =           0.0000            BOUNDARIES =           0.0000
          CONSTANT HEAD =           0.0000         CONSTANT HEAD =           0.0000
            ZONE CHANGE =     1124945.1155           ZONE CHANGE =        1379.1761
       ZONE CHG TIP/TOE =       92813.5169      ZONE CHG TIP/TOE =         219.6797
            ZONE MIXING =           0.0000           ZONE MIXING =           0.0000

               TOTAL IN =     1217758.6324              TOTAL IN =        1598.8559

             OUT:                                     OUT:
             ----                                     ----
             BOUNDARIES =     1031742.3361            BOUNDARIES =        1145.2396
          CONSTANT HEAD =           0.0000         CONSTANT HEAD =           0.0000
            ZONE CHANGE =       93052.8525           ZONE CHANGE =         233.7208
       ZONE CHG TIP/TOE =        5125.0000      ZONE CHG TIP/TOE =           0.0000
            ZONE MIXING =           0.0000           ZONE MIXING =           0.0000

              TOTAL OUT =     1129920.1886             TOTAL OUT =        1378.9604

               IN - OUT =       87838.4438              IN - OUT =         219.8955

    PERCENT DISCREPANCY =           7.48     PERCENT DISCREPANCY =          14.77


    ------------------------------------------------
       NWT REQUIRED           15 NEWTON ITERATIONS 
       AND A TOTAL OF         15 OUTER  ITERATIONS 
       AND A TOTAL OF         16 INNER  ITERATIONS.
    ------------------------------------------------

 HEAD WILL BE SAVED ON UNIT   51 AT END OF TIME STEP    10 IN STRESS PERIOD      1



  -------------------------------------------------------------------------------------
  VOLUMETRIC BUDGET FOR ENTIRE MODEL AT END OF TIME STEP   10 IN STRESS PERIOD      1
  -------------------------------------------------------------------------------------

     CUMULATIVE VOLUMES      L**3       RATES FOR THIS TIME STEP      L**3/T
     ------------------                 ------------------------

           IN:                                      IN:
           ---                                      ---
             STORAGE =           0.0000               STORAGE =           0.0000
       CONSTANT HEAD =           0.0000         CONSTANT HEAD =           0.0000
               WELLS =     1227130.0000                 WELLS =        1681.0000
     HEAD DEP BOUNDS =           0.0000       HEAD DEP BOUNDS =           0.0000
          SWIADDTOCH =           0.0000            SWIADDTOCH =           0.0000

            TOTAL IN =     1227130.0000              TOTAL IN =        1681.0000

          OUT:                                     OUT:
          ----                                     ----
             STORAGE =           0.0000               STORAGE =           0.0000
       CONSTANT HEAD =           0.0000         CONSTANT HEAD =           0.0000
               WELLS =           0.0000                 WELLS =           0.0000
     HEAD DEP BOUNDS =     1226862.1868       HEAD DEP BOUNDS =        1680.6099
          SWIADDTOCH =           0.0000            SWIADDTOCH =           0.0000

           TOTAL OUT =     1226862.1868             TOTAL OUT =        1680.6099

            IN - OUT =         267.8132              IN - OUT =           0.3901

 PERCENT DISCREPANCY =           0.02     PERCENT DISCREPANCY =           0.02


          TIME SUMMARY AT END OF TIME STEP    10 IN STRESS PERIOD      1
                    SECONDS     MINUTES      HOURS       DAYS        YEARS
                    -----------------------------------------------------------
   TIME STEP LENGTH 6.30720E+06 1.05120E+05  1752.0      73.000     0.19986    
 STRESS PERIOD TIME 6.30720E+07 1.05120E+06  17520.      730.00      1.9986    
         TOTAL TIME 6.30720E+07 1.05120E+06  17520.      730.00      1.9986    
 

 HEAD WILL BE SAVED ON UNIT   51 AT END OF TIME STEP   178 IN STRESS PERIOD      3
 
 SOLVING FOR HEAD 
                                                   Max.-Head-Change                         Max.-Flux-Residual
  Residual-Control     NWT-Iter.   Inner-Iter.     Column Row Layer    Maximum-Head-Change  Column Row Layer    Maximum-Flux-Residual          L2-NORM   Outer-Iter.
          0                 1           2            36   31     2          -7.342840E-04      36   31    2            -5.090840E-01          9.253872E-01    1
          0                 2           2            34   32     2          -1.994006E-05      19   18    1            -4.295567E-03          2.769190E-02    2
          0                 3           2            37   31     2          -1.791901E-05      37   31    2            -1.134413E-03          9.083558E-03    3
          0                 4           2            34   32     2          -9.394697E-06      39   29    2            -5.908525E-04          6.290276E-03    4

 OUTPUT CONTROL FOR STRESS PERIOD      3   TIME STEP   179
    SAVE HEAD FOR ALL LAYERS
 SOLVING FOR ZETA FOR LAYER     1 ZONE     2

     729 UPPER PART EQS.       737 LOWER PART EQS.    BAND WIDTH + 1 =     29
 STRESS PERIOD=   3 TIMESTEP=  179 LAYER=   1 ZONE=   2 ACTIVE CELLS= 1466 NUMBER OF EQUATIONS=    1466
 SOLVING FOR ZETA FOR LAYER     2 ZONE     2

     635 UPPER PART EQS.       636 LOWER PART EQS.    BAND WIDTH + 1 =     31
 STRESS PERIOD=   3 TIMESTEP=  179 LAYER=   2 ZONE=   2 ACTIVE CELLS= 1271 NUMBER OF EQUATIONS=    1271
 UBUDSV SAVING "      ZETASRF  1" ON UNIT 55 AT TIME STEP 179, STRESS PERIOD 3

    ------------------------------------------------
       NWT REQUIRED            4 NEWTON ITERATIONS 
       AND A TOTAL OF          4 OUTER  ITERATIONS 
       AND A TOTAL OF          4 INNER  ITERATIONS.
    ------------------------------------------------

 HEAD WILL BE SAVED ON UNIT   51 AT END OF TIME STEP   179 IN STRESS PERIOD      3
 
 SOLVING FOR HEAD 
                                                   Max.-Head-Change                         Max.-Flux-Residual
  Residual-Control     NWT-Iter.   Inner-Iter.     Column Row Layer    Maximum-Head-Change  Column Row Layer    Maximum-Flux-Residual          L2-NORM   Outer-Iter.
          0                 1           2            36   31     2          -7.479761E-04      36   31    2            -5.199505E-01          9.877185E-01    1
          0                 2           2            34   32     2          -2.146296E-05      20   15    1             4.519251E-03          2.984060E-02    2
          0                 3           2            37   31     2          -2.047223E-05      37   31    2            -1.233411E-03          1.164316E-02    3
          0                 4           2            34   32     2          -1.079206E-05      39   29    2            -7.405462E-04          7.956357E-03    4
          0                 5           2            37   31     2          -1.155593E-05      37   31    2            -6.246348E-04          6.521933E-03    5
          0                 6           2            34   32     2          -7.591670E-06      39   29    2            -4.670900E-04          5.634168E-03    6

 OUTPUT CONTROL FOR STRESS PERIOD      3   TIME STEP   180
    PRINT BUDGET
    SAVE HEAD FOR ALL LAYERS
 SOLVING FOR ZETA FOR LAYER     1 ZONE     2

     728 UPPER PART EQS.       741 LOWER PART EQS.    BAND WIDTH + 1 =     35
 STRESS PERIOD=   3 TIMESTEP=  180 LAYER=   1 ZONE=   2 ACTIVE CELLS= 1469 NUMBER OF EQUATIONS=    1469
 SOLVING FOR ZETA FOR LAYER     2 ZONE     2

     635 UPPER PART EQS.       636 LOWER PART EQS.    BAND WIDTH + 1 =     31
 STRESS PERIOD=   3 TIMESTEP=  180 LAYER=   2 ZONE=   2 ACTIVE CELLS= 1271 NUMBER OF EQUATIONS=    1271
 UBUDSV SAVING "      ZETASRF  1" ON UNIT 55 AT TIME STEP 180, STRESS PERIOD 3


                      VOLUMETRIC SWI ZONE BUDGET FOR ENTIRE MODEL
                     AT END OF TIME STEP  180 IN STRESS PERIOD   3
                                      ZONE     1
  -----------------------------------------------------------------------------------

        CUMULATIVE VOLUMES      L**3       RATES FOR THIS TIME STEP      L**3/T
        ------------------                 ------------------------

              IN:                                      IN:
              ---                                      ---
             BOUNDARIES =   141109000.0000            BOUNDARIES =        1680.0000
          CONSTANT HEAD =           0.0000         CONSTANT HEAD =           0.0000
            ZONE CHANGE =     1613577.1942           ZONE CHANGE =          73.2280
       ZONE CHG TIP/TOE =      439864.9275      ZONE CHG TIP/TOE =           3.1500
            ZONE MIXING =           0.0000           ZONE MIXING =           0.0000

               TOTAL IN =   143162442.1218              TOTAL IN =        1756.3780

             OUT:                                     OUT:
             ----                                     ----
             BOUNDARIES =   124506180.7682            BOUNDARIES =        1749.9864
          CONSTANT HEAD =           0.0000         CONSTANT HEAD =           0.0000
            ZONE CHANGE =    18937574.6456           ZONE CHANGE =           3.3941
       ZONE CHG TIP/TOE =      452765.3400      ZONE CHG TIP/TOE =           3.1500
            ZONE MIXING =           0.0000           ZONE MIXING =           0.0000

              TOTAL OUT =   143896520.7538             TOTAL OUT =        1756.5304

               IN - OUT =     -734078.6320              IN - OUT =          -0.1525

    PERCENT DISCREPANCY =          -0.51     PERCENT DISCREPANCY =          -0.01



                      VOLUMETRIC SWI ZONE BUDGET FOR ENTIRE MODEL
                     AT END OF TIME STEP  180 IN STRESS PERIOD   3
                                      ZONE     2
  -----------------------------------------------------------------------------------

        CUMULATIVE VOLUMES      L**3       RATES FOR THIS TIME STEP      L**3/T
        ------------------                 ------------------------

              IN:                                      IN:
              ---                                      ---
             BOUNDARIES =     1223244.6820            BOUNDARIES =          94.8239
          CONSTANT HEAD =           0.0000         CONSTANT HEAD =           0.0000
            ZONE CHANGE =    18893943.1157           ZONE CHANGE =           3.3808
       ZONE CHG TIP/TOE =     1191087.1418      ZONE CHG TIP/TOE =           3.1500
            ZONE MIXING =           0.0000           ZONE MIXING =           0.0000

               TOTAL IN =    21308274.9395              TOTAL IN =         101.3547

             OUT:                                     OUT:
             ----                                     ----
             BOUNDARIES =    17817886.8860            BOUNDARIES =          25.0000
          CONSTANT HEAD =           0.0000         CONSTANT HEAD =           0.0000
            ZONE CHANGE =     2351898.9961           ZONE CHANGE =          73.2280
       ZONE CHG TIP/TOE =      396233.3976      ZONE CHG TIP/TOE =           3.1367
            ZONE MIXING =           0.0000           ZONE MIXING =           0.0000

              TOTAL OUT =    20566019.2796             TOTAL OUT =         101.3647

               IN - OUT =      742255.6598              IN - OUT =      -9.9992E-03

    PERCENT DISCREPANCY =           3.55     PERCENT DISCREPANCY =          -0.01


    ------------------------------------------------
       NWT REQUIRED            6 NEWTON ITERATIONS 
       AND A TOTAL OF          6 OUTER  ITERATIONS 
       AND A TOTAL OF          6 INNER  ITERATIONS.
    ------------------------------------------------

 HEAD WILL BE SAVED ON UNIT   51 AT END OF TIME STEP   180 IN STRESS PERIOD      3



  -------------------------------------------------------------------------------------
  VOLUMETRIC BUDGET FOR ENTIRE MODEL AT END OF TIME STEP  180 IN STRESS PERIOD      3
  -------------------------------------------------------------------------------------

     CUMULATIVE VOLUMES      L**3       RATES FOR THIS TIME STEP      L**3/T
     ------------------                 ------------------------

           IN:                                      IN:
           ---                                      ---
             STORAGE =           0.0000               STORAGE =           0.0000
       CONSTANT HEAD =           0.0000         CONSTANT HEAD =           0.0000
               WELLS =   141119950.0000                 WELLS =        1681.0000
     HEAD DEP BOUNDS =     1223244.6820       HEAD DEP BOUNDS =          94.8239
          SWIADDTOCH =           0.0000            SWIADDTOCH =           0.0000

            TOTAL IN =   142343194.6820              TOTAL IN =        1775.8239

          OUT:                                     OUT:
          ----                                     ----
             STORAGE =           0.0000               STORAGE =           0.0000
       CONSTANT HEAD =           0.0000         CONSTANT HEAD =           0.0000
               WELLS =     2901750.0000                 WELLS =         275.0000
     HEAD DEP BOUNDS =   139433267.6542       HEAD DEP BOUNDS =        1500.9864
          SWIADDTOCH =           0.0000            SWIADDTOCH =           0.0000

           TOTAL OUT =   142335017.6542             TOTAL OUT =        1775.9864

            IN - OUT =        8177.0278              IN - OUT =          -0.1625

 PERCENT DISCREPANCY =           0.01     PERCENT DISCREPANCY =          -0.01


          TIME SUMMARY AT END OF TIME STEP   180 IN STRESS PERIOD      3
                    SECONDS     MINUTES      HOURS       DAYS        YEARS
                    -----------------------------------------------------------
   TIME STEP LENGTH 3.15360E+06  52560.      876.00      36.500     9.99316E-02
 STRESS PERIOD TIME 5.67648E+08 9.46080E+06 1.57680E+05  6570.0      17.988    
         TOTAL TIME 7.25328E+09 1.20888E+08 2.01480E+06  83950.      229.84    
 

 Final Remark:

   The solver successfully met the user supplied convergence criteria, HCLOSE and RCLOSE, for all 1300 time steps.

   Please check the "VOLUMETRIC BUDGET FOR ENTIRE MODEL" to ensure that mass rate balance errors are acceptable for all time steps.

   The cumulative mass error for the entire simulation is 0.01 %




 Simulation finished at  


 Which had an elapsed run time of: 0 minutes, 0 seconds


    OneWater Simulation Now Complete


